####################################################################### 
# 
# This file contains crystal structure data downloaded from the 
# Cambridge Structural Database (CSD) hosted by the Cambridge 
# Crystallographic Data Centre (CCDC).
# 
# Full information about CCDC data access policies and citation 
# guidelines are available at http://www.ccdc.cam.ac.uk/access/V1 
# 
# Audit and citation data items may have been added by the CCDC. 
# Please retain this information to preserve the provenance of 
# this file and to allow appropriate attribution of the data. 
# 
#######################################################################

data_P4bm
_audit_block_doi                 10.5517/ccdc.csd.cc258rnw
_database_code_depnum_ccdc_archive 'CCDC 2004418'
loop_
_citation_id
_citation_doi
_citation_year
1 10.1021/acsenergylett.0c01166 2020
loop_
_audit_author_name
_audit_author_address
'Graeme R. Blake'
;Zernike Institute for Advanced Materials, University of Groningen
Netherlands
;
_audit_update_record             
;
2020-05-18 deposited with the CCDC.	2022-09-06 downloaded from the CCDC.
;

_audit_creation_method           SHELXL-2018/3
_shelx_SHELXL_version_number     2018/3
_chemical_name_systematic        'Formamidinium tin triiodide'
_chemical_name_common            ?
_chemical_melting_point          ?
_chemical_formula_moiety         ?
_chemical_formula_sum            'C H5 I3 N2 Sn'
_chemical_formula_weight         544.46

loop_
_atom_type_symbol
_atom_type_description
_atom_type_scat_dispersion_real
_atom_type_scat_dispersion_imag
_atom_type_scat_source
C C 0.0033 0.0016 'International Tables Vol C Tables 4.2.6.8 and 6.1.1.4'
H H 0.0000 0.0000 'International Tables Vol C Tables 4.2.6.8 and 6.1.1.4'
I I -0.4742 1.8119 'International Tables Vol C Tables 4.2.6.8 and 6.1.1.4'
N N 0.0061 0.0033 'International Tables Vol C Tables 4.2.6.8 and 6.1.1.4'
Sn Sn -0.6537 1.4246 'International Tables Vol C Tables 4.2.6.8 and 6.1.1.4'

_space_group_crystal_system      tetragonal
_space_group_IT_number           100
_space_group_name_H-M_alt        'P 4 b m'
_space_group_name_Hall           'P 4 -2ab'

_shelx_space_group_comment       
;
The symmetry employed for this shelxl refinement is uniquely defined
by the following loop, which should always be used as a source of
symmetry information in preference to the above space-group names.
They are only intended as comments.
;

loop_
_space_group_symop_operation_xyz
'x, y, z'
'-x, -y, z'
'-y, x, z'
'y, -x, z'
'x+1/2, -y+1/2, z'
'-x+1/2, y+1/2, z'
'-y+1/2, -x+1/2, z'
'y+1/2, x+1/2, z'

_cell_length_a                   8.8379(11)
_cell_length_b                   8.8379(11)
_cell_length_c                   12.4066(17)
_cell_angle_alpha                90
_cell_angle_beta                 90
_cell_angle_gamma                90
_cell_volume                     969.1(3)
_cell_formula_units_Z            4
_cell_measurement_temperature    100(2)
_cell_measurement_reflns_used    5304
_cell_measurement_theta_min      6.52
_cell_measurement_theta_max      63.221

_exptl_crystal_description       cube
_exptl_crystal_colour            black
_exptl_crystal_density_meas      ?
_exptl_crystal_density_method    ?
_exptl_crystal_density_diffrn    3.732
_exptl_crystal_F_000             936
_exptl_transmission_factor_min   0.021013
_exptl_transmission_factor_max   0.051105
_exptl_crystal_size_max          0.060
_exptl_crystal_size_mid          0.060
_exptl_crystal_size_min          0.060
_exptl_absorpt_coefficient_mu    12.116
_shelx_estimated_absorpt_T_min   0.530
_shelx_estimated_absorpt_T_max   0.530
_exptl_absorpt_correction_type   multi-scan
_exptl_absorpt_correction_T_min  ?
_exptl_absorpt_correction_T_max  ?
_exptl_absorpt_process_details   
'SAD2ABS-2014/4 - Bruker AXS area detector scaling and absorption correction'
_exptl_absorpt_special_details   ?
_diffrn_ambient_temperature      100(2)
_diffrn_radiation_wavelength     0.71073
_diffrn_radiation_type           MoK\a
_diffrn_source                   ?
_diffrn_measurement_device_type  'Bruker D8 Venture; Photon100 area detector'
_diffrn_measurement_method       ?
_diffrn_detector_area_resol_mean ?
_diffrn_reflns_number            815
_diffrn_reflns_av_unetI/netI     0.0198
_diffrn_reflns_av_R_equivalents  ?
_diffrn_reflns_limit_h_min       0
_diffrn_reflns_limit_h_max       7
_diffrn_reflns_limit_k_min       0
_diffrn_reflns_limit_k_max       11
_diffrn_reflns_limit_l_min       0
_diffrn_reflns_limit_l_max       15
_diffrn_reflns_theta_min         3.260
_diffrn_reflns_theta_max         26.367
_diffrn_reflns_theta_full        25.242
_diffrn_measured_fraction_theta_max 0.996
_diffrn_measured_fraction_theta_full 0.996
_diffrn_reflns_Laue_measured_fraction_max 0.996
_diffrn_reflns_Laue_measured_fraction_full 0.996
_diffrn_reflns_point_group_measured_fraction_max 0.522
_diffrn_reflns_point_group_measured_fraction_full 0.522
_reflns_number_total             815
_reflns_number_gt                789
_reflns_threshold_expression     'I > 2\s(I)'
_reflns_Friedel_coverage         0.000
_reflns_Friedel_fraction_max     0.000
_reflns_Friedel_fraction_full    0.000

_reflns_special_details          
;
 _reflns_Friedel_fraction is defined as the number of unique
 Friedel pairs measured divided by the number that would be
 possible theoretically, ignoring centric projections and
 systematic absences. Completness statistics refer to single and
 composite reflections containing twin component 1 only.
;

_computing_data_collection       ?
_computing_cell_refinement       ?
_computing_data_reduction        ?
_computing_structure_solution    ?
_computing_structure_refinement  'SHELXL-2018/3 (Sheldrick, 2018)'
_computing_molecular_graphics    ?
_computing_publication_material  ?
_refine_special_details          
;
 Refined as a 3-component twin.
;
_refine_ls_structure_factor_coef Fsqd
_refine_ls_matrix_type           full
_refine_ls_weighting_scheme      calc
_refine_ls_weighting_details     
'w=1/[\s^2^(Fo^2^)+(0.0773P)^2^+24.9492P] where P=(Fo^2^+2Fc^2^)/3'
_atom_sites_solution_primary     ?
_atom_sites_solution_secondary   ?
_atom_sites_solution_hydrogens   geom
_refine_ls_hydrogen_treatment    constr
_refine_ls_extinction_method     none
_refine_ls_extinction_coef       .
_refine_ls_abs_structure_details 
;
No quotients, so Flack parameter determined by classical intensity fit
;
_refine_ls_abs_structure_Flack   -0.2(6)
_chemical_absolute_configuration ?
_refine_ls_number_reflns         815
_refine_ls_number_parameters     35
_refine_ls_number_restraints     5
_refine_ls_R_factor_all          0.0449
_refine_ls_R_factor_gt           0.0429
_refine_ls_wR_factor_ref         0.1344
_refine_ls_wR_factor_gt          0.1325
_refine_ls_goodness_of_fit_ref   1.075
_refine_ls_restrained_S_all      1.073
_refine_ls_shift/su_max          0.001
_refine_ls_shift/su_mean         0.000

loop_
_atom_site_label
_atom_site_type_symbol
_atom_site_fract_x
_atom_site_fract_y
_atom_site_fract_z
_atom_site_U_iso_or_equiv
_atom_site_adp_type
_atom_site_occupancy
_atom_site_site_symmetry_order
_atom_site_calc_flag
_atom_site_refinement_flags_posn
_atom_site_refinement_flags_adp
_atom_site_refinement_flags_occupancy
_atom_site_disorder_assembly
_atom_site_disorder_group
Sn1 Sn 0.000000 0.000000 0.2538(5) 0.0254(8) Uani 1 4 d S T P . .
Sn2 Sn 0.000000 0.000000 -0.2463(6) 0.0352(9) Uani 1 4 d S T P . .
I1 I 0.000000 0.000000 0.00835(17) 0.0134(6) Uani 1 4 d S T P . .
I2 I -0.30130(16) 0.19870(16) -0.2496(4) 0.0315(6) Uani 1 2 d S T P . .
I3 I 0.000000 0.000000 0.5097(3) 0.0357(11) Uani 1 4 d S T P . .
I4 I -0.26597(19) 0.23403(19) 0.2490(5) 0.0341(7) Uani 1 2 d S T P . .
C1 C -0.500000 0.000000 0.456(4) 0.064(17) Uiso 1 4 d DS . P . .
H1 H -0.500000 0.000000 0.379406 0.077 Uiso 1 4 calc R U P . .
N1 N -0.5931(5) 0.0931(5) 0.502(4) 0.048(7) Uiso 1 2 d DS . P . .
HN1A H -0.597687 0.097687 0.572975 0.057 Uiso 1 2 calc R U P . .
HN1B H -0.651606 0.151606 0.462781 0.057 Uiso 1 2 calc R U P . .
C2 C 0.500000 0.000000 0.023(4) 0.064(17) Uiso 1 4 d DS . P . .
H2 H 0.500000 0.000000 0.099516 0.077 Uiso 1 4 calc R U P . .
N2 N 0.4070(5) 0.0930(5) -0.023(4) 0.048(7) Uiso 1 2 d DS . P . .
HN2A H 0.402269 0.097731 -0.093924 0.057 Uiso 1 2 calc R U P . .
HN2B H 0.348455 0.151545 0.016322 0.057 Uiso 1 2 calc R U P . .

loop_
_atom_site_aniso_label
_atom_site_aniso_U_11
_atom_site_aniso_U_22
_atom_site_aniso_U_33
_atom_site_aniso_U_23
_atom_site_aniso_U_13
_atom_site_aniso_U_12
Sn1 0.0248(12) 0.0248(12) 0.0265(19) 0.000 0.000 0.000
Sn2 0.0406(15) 0.0406(15) 0.024(2) 0.000 0.000 0.000
I1 0.0139(9) 0.0139(9) 0.0124(15) 0.000 0.000 0.000
I2 0.0293(7) 0.0293(7) 0.0361(14) -0.0091(14) -0.0091(14) 0.0054(8)
I3 0.0425(16) 0.0425(16) 0.022(2) 0.000 0.000 0.000
I4 0.0276(8) 0.0276(8) 0.0471(18) 0.0156(15) 0.0156(15) 0.0108(8)

_geom_special_details            
;
 All esds (except the esd in the dihedral angle between two l.s. planes)
 are estimated using the full covariance matrix.  The cell esds are taken
 into account individually in the estimation of esds in distances, angles
 and torsion angles; correlations between esds in cell parameters are only
 used when they are defined by crystal symmetry.  An approximate (isotropic)
 treatment of cell esds is used for estimating esds involving l.s. planes.
;

loop_
_geom_bond_atom_site_label_1
_geom_bond_atom_site_label_2
_geom_bond_distance
_geom_bond_site_symmetry_2
_geom_bond_publ_flag
Sn1 I1 3.046(7) . ?
Sn1 I4 3.1316(5) 3 ?
Sn1 I4 3.1316(5) . ?
Sn1 I4 3.1316(5) 4 ?
Sn1 I4 3.1316(5) 2 ?
Sn1 I3 3.175(7) . ?
Sn2 I3 3.026(8) 1_554 ?
Sn2 I1 3.160(8) . ?
Sn2 I2 3.1900(6) . ?
Sn2 I2 3.1900(6) 4 ?
Sn2 I2 3.1900(6) 3 ?
Sn2 I2 3.1900(6) 2 ?
C1 N1 1.297(12) 2_455 ?
C1 N1 1.297(12) . ?
C2 N2 1.296(12) 2_655 ?
C2 N2 1.296(12) . ?

loop_
_geom_angle_atom_site_label_1
_geom_angle_atom_site_label_2
_geom_angle_atom_site_label_3
_geom_angle
_geom_angle_site_symmetry_1
_geom_angle_site_symmetry_3
_geom_angle_publ_flag
I1 Sn1 I4 88.91(18) . 3 ?
I1 Sn1 I4 88.91(18) . . ?
I4 Sn1 I4 89.980(7) 3 . ?
I1 Sn1 I4 88.91(18) . 4 ?
I4 Sn1 I4 177.8(4) 3 4 ?
I4 Sn1 I4 89.979(7) . 4 ?
I1 Sn1 I4 88.91(18) . 2 ?
I4 Sn1 I4 89.979(7) 3 2 ?
I4 Sn1 I4 177.8(4) . 2 ?
I4 Sn1 I4 89.979(7) 4 2 ?
I1 Sn1 I3 180.0 . . ?
I4 Sn1 I3 91.09(18) 3 . ?
I4 Sn1 I3 91.09(18) . . ?
I4 Sn1 I3 91.09(18) 4 . ?
I4 Sn1 I3 91.09(18) 2 . ?
I3 Sn2 I1 180.0 1_554 . ?
I3 Sn2 I2 89.28(19) 1_554 . ?
I1 Sn2 I2 90.72(19) . . ?
I3 Sn2 I2 89.28(19) 1_554 4 ?
I1 Sn2 I2 90.72(19) . 4 ?
I2 Sn2 I2 89.990(5) . 4 ?
I3 Sn2 I2 89.28(19) 1_554 3 ?
I1 Sn2 I2 90.72(19) . 3 ?
I2 Sn2 I2 89.992(5) . 3 ?
I2 Sn2 I2 178.6(4) 4 3 ?
I3 Sn2 I2 89.28(19) 1_554 2 ?
I1 Sn2 I2 90.72(19) . 2 ?
I2 Sn2 I2 178.6(4) . 2 ?
I2 Sn2 I2 89.991(5) 4 2 ?
I2 Sn2 I2 89.991(5) 3 2 ?
Sn1 I1 Sn2 180.0 . . ?
Sn2 I2 Sn2 156.76(7) . 5_455 ?
Sn2 I3 Sn1 180.0 1_556 . ?
Sn1 I4 Sn1 172.37(14) 5_455 . ?
N1 C1 N1 128(2) 2_455 . ?
N2 C2 N2 128(2) 2_655 . ?

_refine_diff_density_max         1.812
_refine_diff_density_min         -2.131
_refine_diff_density_rms         0.304

_shelx_res_file                  
;
TITL P4bm in P4bm
    P4bm.res
    created by SHELXL-2018/3 at 23:00:28 on 16-May-2020
CELL 0.71073   8.83790   8.83790  12.40660  90.0000  90.0000  90.0000
ZERR 4.00000 0.00110 0.00110 0.00170 0.0000 0.0000 0.0000
LATT -1
SYMM -X, -Y, Z
SYMM -Y, X, Z
SYMM Y, -X, Z
SYMM 0.5+X, 0.5-Y, Z
SYMM 0.5-X, 0.5+Y, Z
SYMM 0.5-Y, 0.5-X, Z
SYMM 0.5+Y, 0.5+X, Z
SFAC C H I N Sn
UNIT 4 20 12 8 4
TEMP -173.160
SIZE 0.06 0.06 0.06

L.S. 10
BOND
FMAP 2
PLAN 20
SHEL 0.8 9999
EADP C1 C2
EADP N1 N2

DFIX 1.305 0.01 C1 N1 C2 N2
EQIV $1 -x-1, -y, z
DFIX 2.323 0.01 N1 N1_$1
EQIV $2 -x+1, -y, z
DFIX 2.323 0.01 N2 N2_$2

ACTA

WGHT    0.077300   24.949224
BASF   0.18544   0.15806
FVAR       0.15251
SN1   5    0.000000    0.000000    0.253842    10.25000    0.02482    0.02482 =
         0.02653    0.00000    0.00000    0.00000
SN2   5    0.000000    0.000000   -0.246345    10.25000    0.04062    0.04062 =
         0.02435    0.00000    0.00000    0.00000
I1    3    0.000000    0.000000    0.008353    10.25000    0.01394    0.01394 =
         0.01239    0.00000    0.00000    0.00000
I2    3   -0.301304    0.198696   -0.249578    10.50000    0.02928    0.02928 =
         0.03607   -0.00913   -0.00913    0.00540
I3    3    0.000000    0.000000    0.509735    10.25000    0.04246    0.04246 =
         0.02219    0.00000    0.00000    0.00000
I4    3   -0.265968    0.234032    0.249033    10.50000    0.02764    0.02764 =
         0.04708    0.01563    0.01563    0.01081
C1    1   -0.500000    0.000000    0.455979    10.25000    0.06380
AFIX  43
H1    2   -0.500000    0.000000    0.379406    10.25000   -1.20000
AFIX   0
N1    4   -0.593071    0.093071    0.502198    10.50000    0.04771
AFIX  93
HN1A  2   -0.597687    0.097687    0.572975    10.50000   -1.20000
HN1B  2   -0.651606    0.151606    0.462781    10.50000   -1.20000
AFIX   0
C2    1    0.500000    0.000000    0.022944    10.25000    0.06380
AFIX  43
H2    2    0.500000    0.000000    0.099516    10.25000   -1.20000
AFIX   0
N2    4    0.406953    0.093047   -0.023151    10.50000    0.04771
AFIX  93
HN2A  2    0.402269    0.097731   -0.093924    10.50000   -1.20000
HN2B  2    0.348455    0.151545    0.016322    10.50000   -1.20000
AFIX   0
HKLF 5




REM  P4bm in P4bm
REM wR2 = 0.134366, GooF = S = 1.07490, Restrained GooF = 1.07258 for all data
REM R1 = 0.042905 for 789 Fo > 4sig(Fo) and 0.044855 for all 815 data
REM 35 parameters refined using 5 restraints

END

WGHT      0.0357     33.9892

REM Highest difference peak  1.812,  deepest hole -2.131,  1-sigma level  0.304
Q1    1  -0.5000  0.0000  0.4982  10.25000  0.05    1.81
Q2    1   0.5780  0.0780 -0.0034  10.50000  0.05    1.65
Q3    1  -0.2028  0.1233  0.2543  11.00000  0.05    1.40
Q4    1  -0.0694  0.0709  0.4949  11.00000  0.05    1.31
Q5    1   0.0000  0.0000  0.0815  10.25000  0.05    1.17
Q6    1   0.4090  0.0910  0.0078  10.50000  0.05    1.14
Q7    1   0.1300  0.2815  0.0010  11.00000  0.05    1.14
Q8    1  -0.1629  0.1022 -0.2416  11.00000  0.05    1.08
Q9    1   0.3638  0.2328  0.0040  11.00000  0.05    1.06
Q10   1   0.1981  0.2143 -0.0044  11.00000  0.05    1.05
Q11   1   0.4009  0.0991 -0.2446  10.50000  0.05    1.01
Q12   1  -0.2848  0.2152 -0.3165  10.50000  0.05    0.99
Q13   1   0.1625  0.2535  0.0075  11.00000  0.05    0.99
Q14   1  -0.2705  0.2295  0.1771  10.50000  0.05    0.98
Q15   1  -0.4549  0.2064 -0.2291  11.00000  0.05    0.97
Q16   1  -0.2185  0.3824 -0.2342  11.00000  0.05    0.95
Q17   1  -0.1755  0.2355  0.2625  11.00000  0.05    0.95
Q18   1  -0.7476  0.1686  0.4988  11.00000  0.05    0.94
Q19   1  -0.0438  0.2282  0.2655  11.00000  0.05    0.92
Q20   1   0.1378  0.1236  0.0225  11.00000  0.05    0.91
;
_shelx_res_checksum              34988

_shelx_hkl_file                  
;
   1   1   2 102.082 1.79097  -3
   1   1   2 102.082 1.79097  -2
   0   2   0 102.082 1.79097   1
   1   2   0 203.476 2.11357   1
   2   2   0 8975.44 153.601  -3
   0   0   4 8975.44 153.601  -2
   2   2   0 8975.44 153.601   1
   0   0   4 8734.44 180.470  -3
   2   2   0 8734.44 180.470  -2
   2   2   0 8734.44 180.470   1
   0   3   0 2.77724 0.49870   1
   2   2   2 2353.09 33.2039  -3
   1   1   4 2353.09 33.2039  -2
   1   3   0 2353.09 33.2039   1
   1   1   4 2340.01 32.4192  -3
   2   2   2 2340.01 32.4192  -2
   1   3   0 2340.01 32.4192   1
   2   3   0 183.813 2.00897   1
   3   3   0 676.799 14.4862  -3
   0   0   6 676.799 14.4862  -2
   3   3   0 676.799 14.4862   1
   0   0   6 634.898 15.8905  -3
   3   3   0 634.898 15.8905  -2
   3   3   0 634.898 15.8905   1
   2   2   4 4828.20 90.8276  -3
   2   2   4 4828.20 90.8276  -2
   0   4   0 4828.20 90.8276   1
   1   4   0 579.851 6.75538   1
   3   3   2 256.092 4.59371  -3
   1   1   6 256.092 4.59371  -2
   2   4   0 256.092 4.59371   1
   1   1   6 260.275 5.56619  -3
   3   3   2 260.275 5.56619  -2
   2   4   0 260.275 5.56619   1
   3   4   0 143.638 1.82591   1
   4   4   0 2948.61 54.8054  -3
   0   0   8 2948.61 54.8054  -2
   4   4   0 2948.61 54.8054   1
   0   0   8 2842.49 52.6264  -3
   4   4   0 2842.49 52.6264  -2
   4   4   0 2842.49 52.6264   1
   0   5   0 32.2432 2.23565   1
   2   2   6 796.209 11.4384  -3
   3   3   4 796.209 11.4384  -2
   1   5   0 796.209 11.4384   1
   3   3   4 768.043 13.6251  -3
   2   2   6 768.043 13.6251  -2
   1   5   0 768.043 13.6251   1
   2   5   0 4.87597 0.53800   1
   1   1   8 1580.38 22.1173  -3
   4   4   2 1580.38 22.1173  -2
   3   5   0 1580.38 22.1173   1
   4   4   2 1641.75 23.1348  -3
   1   1   8 1641.75 23.1348  -2
   3   5   0 1641.75 23.1348   1
   4   5   0 16.0590 0.83792   1
   0   0  10 153.063 4.88456  -3
   5   5   0 153.063 4.88456  -2
   5   5   0 153.063 4.88456   1
   5   5   0 157.088 3.99681  -3
   0   0  10 157.088 3.99681  -2
   5   5   0 157.088 3.99681   1
   3   3   6 357.728 6.01746  -3
   3   3   6 357.728 6.01746  -2
   0   6   0 357.728 6.01746   1
   1   6   0 357.505 4.13651   1
   4   4   4 1695.43 27.1263  -3
   2   2   8 1695.43 27.1263  -2
   2   6   0 1695.43 27.1263   1
   2   2   8 1689.38 25.0949  -3
   4   4   4 1689.38 25.0949  -2
   2   6   0 1689.38 25.0949   1
   3   6   0 144.366 1.97863   1
   1   1  10 258.606 4.55423  -3
   5   5   2 258.606 4.55423  -2
   4   6   0 258.606 4.55423   1
   5   5   2 258.299 4.95602  -3
   1   1  10 258.299 4.95602  -2
   4   6   0 258.299 4.95602   1
   5   6   0 26.0428 1.04567   1
   6   6   0 1015.93 19.5614  -3
   0   0  12 1015.93 19.5614  -2
   6   6   0 1015.93 19.5614   1
   0   0  12 930.171 20.3890  -3
   6   6   0 930.171 20.3890  -2
   6   6   0 930.171 20.3890   1
   0   7   0 2.95427 1.50965   1
   3   3   8 641.431 9.56966  -3
   4   4   6 641.431 9.56966  -2
   1   7   0 641.431 9.56966   1
   4   4   6 645.445 11.0930  -3
   3   3   8 645.445 11.0930  -2
   1   7   0 645.445 11.0930   1
   2   7   0 28.2598 1.00756   1
   5   5   4 158.663 3.04446  -3
   2   2  10 158.663 3.04446  -2
   3   7   0 158.663 3.04446   1
   2   2  10 157.396 3.72909  -3
   5   5   4 157.396 3.72909  -2
   3   7   0 157.396 3.72909   1
   4   7   0 11.3615 0.97909   1
   1   1  12 626.780 10.8582  -3
   6   6   2 626.780 10.8582  -2
   5   7   0 626.780 10.8582   1
   6   6   2 653.387 11.1057  -3
   1   1  12 653.387 11.1057  -2
   5   7   0 653.387 11.1057   1
   6   7   0 3.49200 0.95572   1
   7   7   0 86.1052 4.93482  -3
   0   0  14 86.1052 4.93482  -2
   7   7   0 86.1052 4.93482   1
   0   0  14 75.8561 5.22243  -3
   7   7   0 75.8561 5.22243  -2
   7   7   0 75.8561 5.22243   1
   4   4   8 604.194 14.1136  -3
   4   4   8 604.194 14.1136  -2
   0   8   0 604.194 14.1136   1
   1   8   0 116.933 2.19191   1
   3   3  10 279.474 5.87904  -3
   5   5   6 279.474 5.87904  -2
   2   8   0 279.474 5.87904   1
   5   5   6 288.348 6.99863  -3
   3   3  10 288.348 6.99863  -2
   2   8   0 288.348 6.99863   1
   3   8   0 92.8629 2.00080   1
   6   6   4 609.963 10.4309  -3
   2   2  12 609.963 10.4309  -2
   4   8   0 609.963 10.4309   1
   2   2  12 597.997 11.1857  -3
   6   6   4 597.997 11.1857  -2
   4   8   0 597.997 11.1857   1
   5   8   0 31.5579 1.47327   1
   1   1  14 84.7802 3.59759  -3
   7   7   2 84.7802 3.59759  -2
   6   8   0 84.7802 3.59759   1
   7   7   2 86.9777 3.14610  -3
   1   1  14 86.9777 3.14610  -2
   6   8   0 86.9777 3.14610   1
   7   8   0 3.89288 1.34227   1
   0   0  16 312.939 17.6081  -3
   8   8   0 312.939 17.6081  -2
   8   8   0 312.939 17.6081   1
   8   8   0 388.797 13.9975  -3
   0   0  16 388.797 13.9975  -2
   8   8   0 388.797 13.9975   1
   0   9   0 6.36767 2.72885   1
   5   5   8 159.532 5.55926  -3
   4   4  10 159.532 5.55926  -2
   1   9   0 159.532 5.55926   1
   4   4  10 171.364 5.40159  -3
   5   5   8 171.364 5.40159  -2
   1   9   0 171.364 5.40159   1
   2   9   0 10.4091 1.33572   1
   3   3  12 268.180 6.00203  -3
   6   6   6 268.180 6.00203  -2
   3   9   0 268.180 6.00203   1
   6   6   6 283.124 7.93253  -3
   3   3  12 283.124 7.93253  -2
   3   9   0 283.124 7.93253   1
   4   9   0 42.3592 1.73631   1
   7   7   4 78.6422 2.81409  -3
   2   2  14 78.6422 2.81409  -2
   5   9   0 78.6422 2.81409   1
   2   2  14 74.6604 4.87382  -3
   7   7   4 74.6604 4.87382  -2
   5   9   0 74.6604 4.87382   1
   1   1  15 12.9434 11.4012  -3
   6   9   0 12.9434 11.4012   1
   1   1  16 167.456 13.5505  -3
   8   8   2 167.456 13.5505  -2
   7   9   0 167.456 13.5505   1
   8   8   2 197.728 7.05446  -3
   1   1  16 197.728 7.05446  -2
   7   9   0 197.728 7.05446   1
   8   9   0 4.14213 2.03253   1
   5   5  10 226.170 7.86458  -3
   5   5  10 226.170 7.86458  -2
   0  10   0 226.170 7.86458   1
   1  10   0 26.8342 2.27637   1
   6   6   8 236.855 8.07071  -3
   4   4  12 236.855 8.07071  -2
   2  10   0 236.855 8.07071   1
   4   4  12 234.164 5.45833  -3
   6   6   8 234.164 5.45833  -2
   2  10   0 234.164 5.45833   1
   3  10   0 29.3609 1.88563   1
   7   7   6 70.2090 5.01181  -3
   3   3  14 70.2090 5.01181  -2
   4  10   0 70.2090 5.01181   1
   3   3  14 85.1593 4.98594  -3
   7   7   6 85.1593 4.98594  -2
   4  10   0 85.1593 4.98594   1
   2   2  15 21.4296 10.5288  -3
   5  10   0 21.4296 10.5288   1
   2   2  16 242.115 11.3988  -3
   8   8   4 242.115 11.3988  -2
   6  10   0 242.115 11.3988   1
   7  10   0 19.9090 2.13270   1
   0  11   0 4.65508 3.36120   1
   5   5  12 95.4152 5.63879  -3
   6   6  10 95.4152 5.63879  -2
   1  11   0 95.4152 5.63879   1
   6   6  10 95.5829 6.88884  -3
   5   5  12 95.5829 6.88884  -2
   1  11   0 95.5829 6.88884   1
   4   4  13 7.36151 10.3594  -3
   2  11   0 7.36151 10.3594   1
   4   4  14 79.5994 5.42562  -3
   7   7   8 79.5994 5.42562  -2
   3  11   0 79.5994 5.42562   1
   7   7   8 68.1379 10.0703  -3
   4   4  14 68.1379 10.0703  -2
   3  11   0 68.1379 10.0703   1
   4  11   0 14.5890 2.43795   1
   8   8   6 102.448 6.43589  -3
   3   3  16 102.448 6.43589  -2
   5  11   0 102.448 6.43589   1
   3   3  16 93.5432 5.85582  -3
   8   8   6 93.5432 5.85582  -2
   5  11   0 93.5432 5.85582   1
   6  11   0 18.0834 2.79101   1
   6   6  12 105.161 6.58049  -3
   6   6  12 105.161 6.58049  -2
   0  12   0 105.161 6.58049   1
   1  12   0 0.42439 2.63117   1
   5   5  14 79.2485 6.39491  -3
   7   7  10 79.2485 6.39491  -2
   2  12   0 79.2485 6.39491   1
   7   7  10 73.0346 6.41282  -3
   5   5  14 73.0346 6.41282  -2
   2  12   0 73.0346 6.41282   1
   3  12   0 5.82402 3.26426   1
   1   1   1 9.07533 0.34300   1
   0   2   1 17.2401 0.47996   1
   1   2   1 82.3347 1.00295  -3
   1   2   1 82.3347 1.00295   1
   1   2   1 85.0768 1.09590  -2
   1   2   1 85.0768 1.09590   1
   2   2   1 53.2060 0.85779   1
   1   3   1 22.5143 0.45009   1
   2   3   1 16.0864 0.76601  -2
   2   3   1 16.0864 0.76601   1
   2   3   1 15.0260 0.59275  -3
   2   3   1 15.0260 0.59275   1
   3   3   1 95.6696 1.37369   1
   0   4   1 156.951 2.14707   1
   1   2   5 95.9892 1.60922  -3
   2   3   3 95.9892 1.60922  -2
   1   4   1 95.9892 1.60922   1
   2   3   3 95.4421 1.45291  -3
   1   2   5 95.4421 1.45291  -2
   1   4   1 95.4421 1.45291   1
   2   4   1 109.917 1.07277   1
   3   4   1 12.1018 0.89576  -2
   3   4   1 12.1018 0.89576   1
   3   4   1 11.1929 0.76778  -3
   3   4   1 11.1929 0.76778   1
   4   4   1 123.302 1.59425   1
   1   5   1 20.6058 0.53849   1
   1   2   7 20.2104 0.95922  -3
   3   4   3 20.2104 0.95922  -2
   2   5   1 20.2104 0.95922   1
   3   4   3 18.7123 0.84394  -3
   1   2   7 18.7123 0.84394  -2
   2   5   1 18.7123 0.84394   1
   3   5   1 59.0388 0.83027   1
   4   5   1 21.4143 1.26886  -2
   4   5   1 21.4143 1.26886   1
   4   5   1 23.3266 0.98429  -3
   4   5   1 23.3266 0.98429   1
   5   5   1 67.9284 1.35934   1
   0   6   1 210.642 3.03769   1
   2   3   7 20.5689 1.02484  -3
   3   4   5 20.5689 1.02484  -2
   1   6   1 20.5689 1.02484   1
   3   4   5 21.1952 1.20144  -3
   2   3   7 21.1952 1.20144  -2
   1   6   1 21.1952 1.20144   1
   2   6   1 205.154 1.77701   1
   1   2   9 11.5428 1.11197  -3
   4   5   3 11.5428 1.11197  -2
   3   6   1 11.5428 1.11197   1
   4   5   3 12.5958 0.92805  -3
   1   2   9 12.5958 0.92805  -2
   3   6   1 12.5958 0.92805   1
   4   6   1 69.5202 1.02339   1
   5   6   1 22.4833 1.19176  -3
   5   6   1 22.4833 1.19176   1
   5   6   1 21.2977 1.50310  -2
   5   6   1 21.2977 1.50310   1
   6   6   1 37.8476 1.32958   1
   1   7   1 9.18741 0.53229   1
   2   3   9 33.9617 1.32770  -3
   4   5   5 33.9617 1.32770  -2
   2   7   1 33.9617 1.32770   1
   4   5   5 36.2755 1.31924  -3
   2   3   9 36.2755 1.31924  -2
   2   7   1 36.2755 1.31924   1
   3   7   1 22.4743 0.74486   1
   5   6   3 63.5624 1.67559  -3
   1   2  11 63.5624 1.67559  -2
   4   7   1 63.5624 1.67559   1
   1   2  11 62.0361 1.78957  -3
   5   6   3 62.0361 1.78957  -2
   4   7   1 62.0361 1.78957   1
   5   7   1 5.10982 0.73536   1
   6   7   1 49.8914 2.33156  -2
   6   7   1 49.8914 2.33156   1
   6   7   1 47.4716 1.89708  -3
   6   7   1 47.4716 1.89708   1
   7   7   1 8.44094 1.17077   1
   0   8   1 229.472 3.39118   1
   3   4   9 8.76498 1.18983  -3
   4   5   7 8.76498 1.18983  -2
   1   8   1 8.76498 1.18983   1
   4   5   7 7.34347 1.29070  -3
   3   4   9 7.34347 1.29070  -2
   1   8   1 7.34347 1.29070   1
   2   8   1 118.292 1.73280   1
   5   6   5 11.8222 1.54688  -3
   2   3  11 11.8222 1.54688  -2
   3   8   1 11.8222 1.54688   1
   2   3  11 12.2215 1.48509  -3
   5   6   5 12.2215 1.48509  -2
   3   8   1 12.2215 1.48509   1
   4   8   1 62.1141 1.24468   1
   6   7   3 28.1815 1.65629  -3
   1   2  13 28.1815 1.65629  -2
   5   8   1 28.1815 1.65629   1
   1   2  13 29.5823 2.31523  -3
   6   7   3 29.5823 2.31523  -2
   5   8   1 29.5823 2.31523   1
   6   8   1 4.47934 0.87486   1
   7   8   1 17.9674 2.86866  -2
   7   8   1 17.9674 2.86866   1
   7   8   1 24.2332 2.28476  -3
   7   8   1 24.2332 2.28476   1
   8   8   1 0.48269 1.78915   1
   1   9   1 9.10585 1.07909   1
   3   4  11 24.7373 1.70140  -3
   5   6   7 24.7373 1.70140  -2
   2   9   1 24.7373 1.70140   1
   5   6   7 19.7142 2.38389  -3
   3   4  11 19.7142 2.38389  -2
   2   9   1 19.7142 2.38389   1
   3   9   1 8.21688 0.94410   1
   6   7   5 56.0312 2.19100  -3
   2   3  13 56.0312 2.19100  -2
   4   9   1 56.0312 2.19100   1
   2   3  13 49.6375 2.25749  -3
   6   7   5 49.6375 2.25749  -2
   4   9   1 49.6375 2.25749   1
   5   9   1 1.52286 0.95157   1
   7   8   3 39.4621 2.07103  -3
   1   2  15 39.4621 2.07103  -2
   6   9   1 39.4621 2.07103   1
   1   2  15 32.0515 2.85329  -3
   7   8   3 32.0515 2.85329  -2
   6   9   1 32.0515 2.85329   1
   7   9   1 6.30362 1.27537   1
   8   9   1 11.8653 3.87585  -2
   8   9   1 11.8653 3.87585   1
   8   9   1 17.4534 4.33127  -3
   8   9   1 17.4534 4.33127   1
   0  10   1 77.0633 2.97855   1
   4   5  11 29.3004 2.67542  -3
   5   6   9 29.3004 2.67542  -2
   1  10   1 29.3004 2.67542   1
   5   6   9 35.1768 2.78905  -3
   4   5  11 35.1768 2.78905  -2
   1  10   1 35.1768 2.78905   1
   2  10   1 82.8489 1.98056   1
   6   7   7 28.9484 3.04244  -3
   3   4  13 28.9484 3.04244  -2
   3  10   1 28.9484 3.04244   1
   3   4  13 24.3248 2.48791  -3
   6   7   7 24.3248 2.48791  -2
   3  10   1 24.3248 2.48791   1
   2   3  14 20.2947 7.08484  -3
   4  10   1 20.2947 7.08484   1
   2   3  15 16.1400 3.74368  -3
   7   8   5 16.1400 3.74368  -2
   5  10   1 16.1400 3.74368   1
   7   8   5 10.9682 3.47368  -3
   2   3  15 10.9682 3.47368  -2
   5  10   1 10.9682 3.47368   1
   6  10   1 9.23754 1.54456   1
   8   9   3 13.1754 3.10697  -3
   1   2  17 13.1754 3.10697  -2
   7  10   1 13.1754 3.10697   1
   1   2  17 14.0560 3.91187  -3
   8   9   3 14.0560 3.91187  -2
   7  10   1 14.0560 3.91187   1
   1  11   1 11.2043 1.66125   1
   6   7   9 3.77900 5.72544  -3
   4   5  13 3.77900 5.72544  -2
   2  11   1 3.77900 5.72544   1
   4   5  13 14.9403 3.96032  -3
   6   7   9 14.9403 3.96032  -2
   2  11   1 14.9403 3.96032   1
   3   4  14 12.1512 6.93953  -3
   3  11   1 12.1512 6.93953   1
   3   4  15 12.3129 3.58615  -3
   7   8   7 12.3129 3.58615  -2
   4  11   1 12.3129 3.58615   1
   7   8   7 17.0515 3.61950  -3
   3   4  15 17.0515 3.61950  -2
   4  11   1 17.0515 3.61950   1
   5  11   1 23.3904 1.75715   1
   8   9   5 21.2463 7.07481  -3
   2   3  17 21.2463 7.07481  -2
   6  11   1 21.2463 7.07481   1
   2   3  17 33.5441 8.98701  -3
   8   9   5 33.5441 8.98701  -2
   6  11   1 33.5441 8.98701   1
   0  12   1 31.3322 3.22175   1
   5   6  13 52.0513 5.23284  -3
   6   7  11 52.0513 5.23284  -2
   1  12   1 52.0513 5.23284   1
   6   7  11 43.1738 4.13352  -3
   5   6  13 43.1738 4.13352  -2
   1  12   1 43.1738 4.13352   1
   2  12   1 14.9778 2.07112   1
   7   8   9 21.2677 4.23902  -3
   4   5  15 21.2677 4.23902  -2
   3  12   1 21.2677 4.23902   1
   4   5  15 27.5777 5.07320  -3
   7   8   9 27.5777 5.07320  -2
   3  12   1 27.5777 5.07320   1
   1   1   0 1922.32 61.3397  -3
   1   1   0 1922.32 61.3397  -2
   0   0   2 1922.32 61.3397   1
   0   1   2 0.88490 0.27426   1
   0   2   0 47.0231 0.97522  -3
   1   1   2 47.0231 0.97522  -2
   1   1   2 47.0231 0.97522   1
   1   1   2 51.1366 1.09189  -3
   0   2   0 51.1366 1.09189  -2
   1   1   2 51.1366 1.09189   1
   0   2   2 2774.70 25.4945  -3
   0   2   2 2774.70 25.4945  -2
   0   2   2 2774.70 25.4945   1
   1   2   2 370.201 2.52733   1
   1   1   4 1628.37 24.0252  -3
   1   3   0 1628.37 24.0252  -2
   2   2   2 1628.37 24.0252   1
   1   3   0 1593.86 21.1676  -3
   1   1   4 1593.86 21.1676  -2
   2   2   2 1593.86 21.1676   1
   0   3   2 2.35777 0.35506   1
   1   3   2 67.6808 1.00302  -3
   0   2   4 67.6808 1.00302  -2
   1   3   2 67.6808 1.00302   1
   0   2   4 65.7439 1.01862  -3
   1   3   2 65.7439 1.01862  -2
   1   3   2 65.7439 1.01862   1
   2   3   2 38.2065 0.61194   1
   1   1   6 249.788 4.03943  -3
   2   4   0 249.788 4.03943  -2
   3   3   2 249.788 4.03943   1
   2   4   0 245.150 4.14372  -3
   1   1   6 245.150 4.14372  -2
   3   3   2 245.150 4.14372   1
   1   3   4 1209.46 13.6841  -3
   1   3   4 1209.46 13.6841  -2
   0   4   2 1209.46 13.6841   1
   1   4   2 416.494 2.95015   1
   2   4   2 719.255 7.57387  -3
   0   2   6 719.255 7.57387  -2
   2   4   2 719.255 7.57387   1
   0   2   6 688.857 8.26778  -3
   2   4   2 688.857 8.26778  -2
   2   4   2 688.857 8.26778   1
   3   4   2 221.529 1.75199   1
   3   5   0 645.392 8.54201  -3
   1   1   8 645.392 8.54201  -2
   4   4   2 645.392 8.54201   1
   1   1   8 661.275 9.70124  -3
   3   5   0 661.275 9.70124  -2
   4   4   2 661.275 9.70124   1
   0   5   2 31.0734 1.43836   1
   2   4   4 110.754 2.37679  -3
   1   3   6 110.754 2.37679  -2
   1   5   2 110.754 2.37679   1
   1   3   6 145.834 2.30616  -3
   2   4   4 145.834 2.30616  -2
   1   5   2 145.834 2.30616   1
   2   5   2 7.78982 0.47260   1
   0   2   8 271.265 3.19027  -3
   3   5   2 271.265 3.19027  -2
   3   5   2 271.265 3.19027   1
   3   5   2 265.031 3.17139  -3
   0   2   8 265.031 3.17139  -2
   3   5   2 265.031 3.17139   1
   4   5   2 12.0013 0.54433   1
   4   6   0 240.333 3.97477  -3
   1   1  10 240.333 3.97477  -2
   5   5   2 240.333 3.97477   1
   1   1  10 246.442 4.43930  -3
   4   6   0 246.442 4.43930  -2
   5   5   2 246.442 4.43930   1
   2   4   6 147.244 2.39541  -3
   2   4   6 147.244 2.39541  -2
   0   6   2 147.244 2.39541   1
   1   6   2 316.074 2.63426   1
   3   5   4 534.814 6.05419  -3
   1   3   8 534.814 6.05419  -2
   2   6   2 534.814 6.05419   1
   1   3   8 547.884 5.79111  -3
   3   5   4 547.884 5.79111  -2
   2   6   2 547.884 5.79111   1
   3   6   2 155.709 1.53362   1
   0   2  10 234.483 3.12212  -3
   4   6   2 234.483 3.12212  -2
   4   6   2 234.483 3.12212   1
   4   6   2 238.717 2.98539  -3
   0   2  10 238.717 2.98539  -2
   4   6   2 238.717 2.98539   1
   5   6   2 19.1654 0.73917   1
   1   1  12 249.538 5.31976  -3
   5   7   0 249.538 5.31976  -2
   6   6   2 249.538 5.31976   1
   5   7   0 253.098 4.48052  -3
   1   1  12 253.098 4.48052  -2
   6   6   2 253.098 4.48052   1
   0   7   2 1.90082 0.88466   1
   2   4   8 88.1847 1.56038  -3
   3   5   6 88.1847 1.56038  -2
   1   7   2 88.1847 1.56038   1
   3   5   6 87.1725 1.86640  -3
   2   4   8 87.1725 1.86640  -2
   1   7   2 87.1725 1.86640   1
   2   7   2 14.0198 0.64609   1
   1   3  10 157.764 3.09707  -3
   4   6   4 157.764 3.09707  -2
   3   7   2 157.764 3.09707   1
   4   6   4 96.4532 2.86194  -3
   1   3  10 96.4532 2.86194  -2
   3   7   2 96.4532 2.86194   1
   4   7   2 22.9634 0.80992   1
   5   7   2 159.085 2.75442  -3
   0   2  12 159.085 2.75442  -2
   5   7   2 159.085 2.75442   1
   0   2  12 157.812 2.85369  -3
   5   7   2 157.812 2.85369  -2
   5   7   2 157.812 2.85369   1
   6   7   2 5.22016 0.76994   1
   1   1  14 98.2195 4.06497  -3
   6   8   0 98.2195 4.06497  -2
   7   7   2 98.2195 4.06497   1
   6   8   0 106.746 3.25606  -3
   1   1  14 106.746 3.25606  -2
   7   7   2 106.746 3.25606   1
   3   5   8 334.648 5.19418  -3
   3   5   8 334.648 5.19418  -2
   0   8   2 334.648 5.19418   1
   1   8   2 129.749 1.74576   1
   2   4  10 64.6140 1.72956  -3
   4   6   6 64.6140 1.72956  -2
   2   8   2 64.6140 1.72956   1
   4   6   6 52.4518 1.83812  -3
   2   4  10 52.4518 1.83812  -2
   2   8   2 52.4518 1.83812   1
   3   8   2 55.2654 1.18537   1
   1   3  12 220.434 3.80453  -3
   5   7   4 220.434 3.80453  -2
   4   8   2 220.434 3.80453   1
   5   7   4 216.750 3.74097  -3
   1   3  12 216.750 3.74097  -2
   4   8   2 216.750 3.74097   1
   5   8   2 33.6814 1.10936   1
   6   8   2 116.430 2.49850  -3
   0   2  14 116.430 2.49850  -2
   6   8   2 116.430 2.49850   1
   0   2  14 106.299 2.91395  -3
   6   8   2 106.299 2.91395  -2
   6   8   2 106.299 2.91395   1
   1   1  15 -8.4041 10.4193  -3
   7   8   2 -8.4041 10.4193   1
   0   2  15 3.56691 10.8954  -3
   7   8   2 3.56691 10.8954   1
   7   9   0 125.625 5.75166  -3
   1   1  16 125.625 5.75166  -2
   8   8   2 125.625 5.75166   1
   1   1  16 115.853 8.14171  -3
   7   9   0 115.853 8.14171  -2
   8   8   2 115.853 8.14171   1
   0   9   2 4.97181 1.13237   1
   4   6   8 51.0430 2.12797  -3
   3   5  10 51.0430 2.12797  -2
   1   9   2 51.0430 2.12797   1
   3   5  10 53.2861 2.48014  -3
   4   6   8 53.2861 2.48014  -2
   1   9   2 53.2861 2.48014   1
   2   9   2 21.5500 0.98049   1
   2   4  12 65.9003 2.16094  -3
   5   7   6 65.9003 2.16094  -2
   3   9   2 65.9003 2.16094   1
   5   7   6 68.3287 2.38282  -3
   2   4  12 68.3287 2.38282  -2
   3   9   2 68.3287 2.38282   1
   4   9   2 29.2734 1.10993   1
   1   3  14 52.8286 3.04347  -3
   6   8   4 52.8286 3.04347  -2
   5   9   2 52.8286 3.04347   1
   6   8   4 40.8296 2.78759  -3
   1   3  14 40.8296 2.78759  -2
   5   9   2 40.8296 2.78759   1
   0   2  15 30.6825 11.1749  -3
   6   9   2 30.6825 11.1749   1
   0   2  16 54.0491 5.87014  -3
   7   9   2 54.0491 5.87014  -2
   7   9   2 54.0491 5.87014   1
   7   9   2 34.2393 3.53871  -3
   0   2  16 34.2393 3.53871  -2
   7   9   2 34.2393 3.53871   1
   0   2  17 43.5880 13.2005  -2
   8   9   2 43.5880 13.2005   1
   4   6  10 31.9057 2.08376  -3
   4   6  10 31.9057 2.08376  -2
   0  10   2 31.9057 2.08376   1
   1  10   2 22.2162 1.31855   1
   3   5  12 147.561 3.46671  -3
   5   7   8 147.561 3.46671  -2
   2  10   2 147.561 3.46671   1
   5   7   8 136.432 4.28531  -3
   3   5  12 136.432 4.28531  -2
   2  10   2 136.432 4.28531   1
   2   4  13 8.66813 8.94517  -3
   3  10   2 8.66813 8.94517   1
   6   8   6 19.1411 3.02868  -3
   2   4  14 19.1411 3.02868  -2
   4  10   2 19.1411 3.02868   1
   2   4  14 34.2260 3.02541  -3
   6   8   6 34.2260 3.02541  -2
   4  10   2 34.2260 3.02541   1
   1   3  15 8.66792 10.7724  -3
   5  10   2 8.66792 10.7724   1
   1   3  16 83.3042 4.67292  -3
   7   9   4 83.3042 4.67292  -2
   6  10   2 83.3042 4.67292   1
   7   9   4 88.3413 4.68188  -3
   1   3  16 88.3413 4.68188  -2
   6  10   2 88.3413 4.68188   1
   7  10   2 13.0626 1.62840   1
   0  11   2 2.61472 2.27339   1
   4   6  12 38.1344 2.67991  -3
   5   7  10 38.1344 2.67991  -2
   1  11   2 38.1344 2.67991   1
   5   7  10 40.4367 5.92982  -3
   4   6  12 40.4367 5.92982  -2
   1  11   2 40.4367 5.92982   1
   2  11   2 6.02123 1.83071   1
   3   5  14 27.0111 2.99886  -3
   6   8   8 27.0111 2.99886  -2
   3  11   2 27.0111 2.99886   1
   6   8   8 15.7720 6.35196  -3
   3   5  14 15.7720 6.35196  -2
   3  11   2 15.7720 6.35196   1
   4  11   2 13.7528 2.01583   1
   7   9   6 19.0875 4.31183  -3
   2   4  16 19.0875 4.31183  -2
   5  11   2 19.0875 4.31183   1
   2   4  16 28.7083 4.20463  -3
   7   9   6 28.7083 4.20463  -2
   5  11   2 28.7083 4.20463   1
   6  11   2 11.1076 1.99753   1
   5   7  12 72.9056 4.81317  -3
   5   7  12 72.9056 4.81317  -2
   0  12   2 72.9056 4.81317   1
   1  12   2 7.25323 2.14816   1
   4   6  14 21.7929 3.32359  -3
   6   8  10 21.7929 3.32359  -2
   2  12   2 21.7929 3.32359   1
   6   8  10 12.3631 4.02534  -3
   4   6  14 12.3631 4.02534  -2
   2  12   2 12.3631 4.02534   1
   3  12   2 9.08051 2.21390   1
   0   0   3 1.40747 0.62534   1
   1   1   3 10.1146 0.41254   1
   0   2   3 20.5151 0.55537   1
   1   2   3 77.5923 1.09882  -3
   1   2   3 77.5923 1.09882   1
   1   2   3 81.9281 1.15174  -2
   1   2   3 81.9281 1.15174   1
   2   2   3 30.0291 0.70588   1
   0   3   3 0.34139 0.63479   1
   1   3   3 11.9618 0.37094   1
   1   4   1 36.7891 0.97415  -3
   1   2   5 36.7891 0.97415  -2
   2   3   3 36.7891 0.97415   1
   1   2   5 36.5954 1.14890  -3
   1   4   1 36.5954 1.14890  -2
   2   3   3 36.5954 1.14890   1
   3   3   3 102.756 1.38834   1
   0   4   3 99.7853 1.47408   1
   1   4   3 83.1880 1.34026  -3
   1   4   3 83.1880 1.34026   1
   1   4   3 87.2362 1.24015  -2
   1   4   3 87.2362 1.24015   1
   2   4   3 114.711 1.11271   1
   1   2   7 19.0315 1.08362  -3
   2   5   1 19.0315 1.08362  -2
   3   4   3 19.0315 1.08362   1
   2   5   1 21.4533 0.89021  -3
   1   2   7 21.4533 0.89021  -2
   3   4   3 21.4533 0.89021   1
   4   4   3 101.928 1.49398   1
   1   5   3 28.8545 0.62426   1
   2   5   3 8.78340 1.00023  -2
   2   5   3 8.78340 1.00023   1
   2   5   3 8.86437 0.79795  -3
   2   5   3 8.86437 0.79795   1
   3   5   3 46.6892 0.80431   1
   1   2   9 20.4114 1.25629  -3
   3   6   1 20.4114 1.25629  -2
   4   5   3 20.4114 1.25629   1
   3   6   1 20.9126 1.03944  -3
   1   2   9 20.9126 1.03944  -2
   4   5   3 20.9126 1.03944   1
   5   5   3 61.6606 1.30199   1
   0   6   3 208.051 2.63473   1
   2   5   5 27.0080 1.21943  -3
   1   4   7 27.0080 1.21943  -2
   1   6   3 27.0080 1.21943   1
   1   4   7 27.2776 0.98627  -3
   2   5   5 27.2776 0.98627  -2
   1   6   3 27.2776 0.98627   1
   2   6   3 165.553 1.58566   1
   3   6   3 5.17081 1.26559  -2
   3   6   3 5.17081 1.26559   1
   3   6   3 3.62334 0.96543  -3
   3   6   3 3.62334 0.96543   1
   4   6   3 63.9542 1.02155   1
   4   7   1 30.5777 1.23763  -3
   1   2  11 30.5777 1.23763  -2
   5   6   3 30.5777 1.23763   1
   1   2  11 33.4986 1.53401  -3
   4   7   1 33.4986 1.53401  -2
   5   6   3 33.4986 1.53401   1
   6   6   3 33.6463 1.36134   1
   1   7   3 8.05849 0.55166   1
   1   4   9 31.5981 1.35484  -3
   3   6   5 31.5981 1.35484  -2
   2   7   3 31.5981 1.35484   1
   3   6   5 34.0322 1.39240  -3
   1   4   9 34.0322 1.39240  -2
   2   7   3 34.0322 1.39240   1
   3   7   3 24.4180 0.78824   1
   4   7   3 67.0829 1.95356  -2
   4   7   3 67.0829 1.95356   1
   4   7   3 64.3035 1.68734  -3
   4   7   3 64.3035 1.68734   1
   5   7   3 3.77804 0.77482   1
   5   8   1 45.7144 1.94143  -3
   1   2  13 45.7144 1.94143  -2
   6   7   3 45.7144 1.94143   1
   1   2  13 39.9343 2.07691  -3
   5   8   1 39.9343 2.07691  -2
   6   7   3 39.9343 2.07691   1
   7   7   3 11.1427 1.31551   1
   0   8   3 196.422 3.20127   1
   2   5   9 5.60544 1.39011  -3
   3   6   7 5.60544 1.39011  -2
   1   8   3 5.60544 1.39011   1
   3   6   7 5.41016 1.56035  -3
   2   5   9 5.41016 1.56035  -2
   1   8   3 5.41016 1.56035   1
   2   8   3 109.144 1.63950   1
   4   7   5 22.6962 1.72252  -3
   1   4  11 22.6962 1.72252  -2
   3   8   3 22.6962 1.72252   1
   1   4  11 19.3539 1.71213  -3
   4   7   5 19.3539 1.71213  -2
   3   8   3 19.3539 1.71213   1
   4   8   3 55.8209 1.29687   1
   5   8   3 19.3519 2.37727  -2
   5   8   3 19.3519 2.37727   1
   5   8   3 19.9257 1.61217  -3
   5   8   3 19.9257 1.61217   1
   1   2  14 2.26818 7.03687  -3
   6   8   3 2.26818 7.03687   1
   1   2  15 20.8679 2.92957  -3
   6   9   1 20.8679 2.92957  -2
   7   8   3 20.8679 2.92957   1
   6   9   1 20.1022 2.34042  -3
   1   2  15 20.1022 2.34042  -2
   7   8   3 20.1022 2.34042   1
   8   8   3 4.87563 2.10974   1
   1   9   3 8.55738 1.00197   1
   2   5  11 26.7759 1.62543  -3
   4   7   7 26.7759 1.62543  -2
   2   9   3 26.7759 1.62543   1
   4   7   7 25.0728 2.11880  -3
   2   5  11 25.0728 2.11880  -2
   2   9   3 25.0728 2.11880   1
   3   9   3 9.00547 0.91870   1
   1   4  13 45.4125 2.51966  -3
   5   8   5 45.4125 2.51966  -2
   4   9   3 45.4125 2.51966   1
   5   8   5 48.9458 2.40896  -3
   1   4  13 48.9458 2.40896  -2
   4   9   3 48.9458 2.40896   1
   5   9   3 1.33106 1.00405   1
   6   9   3 27.8456 2.76180  -3
   6   9   3 27.8456 2.76180   1
   6   9   3 33.4853 3.81213  -2
   6   9   3 33.4853 3.81213   1
   7   9   3 12.7977 1.40856   1
   7  10   1 18.0681 4.18584  -3
   1   2  17 18.0681 4.18584  -2
   8   9   3 18.0681 4.18584   1
   1   2  17 6.01976 4.12239  -3
   7  10   1 6.01976 4.12239  -2
   8   9   3 6.01976 4.12239   1
   0  10   3 68.7875 2.40471   1
   4   7   9 24.7391 2.31186  -3
   3   6  11 24.7391 2.31186  -2
   1  10   3 24.7391 2.31186   1
   3   6  11 29.4601 2.74036  -3
   4   7   9 29.4601 2.74036  -2
   1  10   3 29.4601 2.74036   1
   2  10   3 70.6431 1.88015   1
   5   8   7 25.4903 2.38009  -3
   2   5  13 25.4903 2.38009  -2
   3  10   3 25.4903 2.38009   1
   2   5  13 22.3205 2.36825  -3
   5   8   7 22.3205 2.36825  -2
   3  10   3 22.3205 2.36825   1
   1   4  14 18.1762 10.3155  -3
   4  10   3 18.1762 10.3155   1
   6   9   5 18.4404 4.21445  -3
   1   4  15 18.4404 4.21445  -2
   5  10   3 18.4404 4.21445   1
   1   4  15 15.3226 3.82948  -3
   6   9   5 15.3226 3.82948  -2
   5  10   3 15.3226 3.82948   1
   6  10   3 8.71072 1.47765   1
   7  10   3 12.0594 4.08775  -2
   7  10   3 12.0594 4.08775   1
   7  10   3 8.84039 4.00174  -3
   7  10   3 8.84039 4.00174   1
   1  11   3 8.35947 1.55985   1
   3   6  13 8.45351 4.11757  -3
   5   8   9 8.45351 4.11757  -2
   2  11   3 8.45351 4.11757   1
   5   8   9 -0.7602 5.89706  -3
   3   6  13 -0.7602 5.89706  -2
   2  11   3 -0.7602 5.89706   1
   3  11   3 6.37161 1.68810   1
   2   5  15 20.4106 3.05742  -3
   6   9   7 20.4106 3.05742  -2
   4  11   3 20.4106 3.05742   1
   6   9   7 11.5563 3.69121  -3
   2   5  15 11.5563 3.69121  -2
   4  11   3 11.5563 3.69121   1
   1   4  16 18.1797 12.9210  -3
   5  11   3 18.1797 12.9210   1
   0  12   3 29.0695 2.94223   1
   5   8  11 36.7360 4.12619  -3
   4   7  13 36.7360 4.12619  -2
   1  12   3 36.7360 4.12619   1
   4   7  13 36.4291 3.86040  -3
   5   8  11 36.4291 3.86040  -2
   1  12   3 36.4291 3.86040   1
   3   6  14 23.5554 13.3470  -3
   2  12   3 23.5554 13.3470   1
   6   9   9 22.8773 4.33562  -3
   3   6  15 22.8773 4.33562  -2
   3  12   3 22.8773 4.33562   1
   3   6  15 31.6044 4.78992  -3
   6   9   9 31.6044 4.78992  -2
   3  12   3 31.6044 4.78992   1
   2   2   0 9999.99 208.555  -3
   2   2   0 9999.99 208.555  -2
   0   0   4 9999.99 208.555   1
   0   1   4 1.04473 0.35177   1
   1   3   0 1715.65 23.9132  -3
   2   2   2 1715.65 23.9132  -2
   1   1   4 1715.65 23.9132   1
   2   2   2 1791.79 23.6400  -3
   1   3   0 1791.79 23.6400  -2
   1   1   4 1791.79 23.6400   1
   1   3   2 83.3636 1.14875  -3
   1   3   2 83.3636 1.14875  -2
   0   2   4 83.3636 1.14875   1
   1   2   4 154.855 1.24469   1
   0   4   0 5524.16 92.6165  -3
   2   2   4 5524.16 92.6165  -2
   2   2   4 5524.16 92.6165   1
   2   2   4 5308.99 83.0013  -3
   0   4   0 5308.99 83.0013  -2
   2   2   4 5308.99 83.0013   1
   0   3   4 1.61459 0.45083   1
   0   4   2 1956.37 21.8294  -3
   1   3   4 1956.37 21.8294  -2
   1   3   4 1956.37 21.8294   1
   1   3   4 1893.04 21.0897  -3
   0   4   2 1893.04 21.0897  -2
   1   3   4 1893.04 21.0897   1
   2   3   4 112.127 1.05730   1
   2   2   6 578.838 8.51686  -3
   1   5   0 578.838 8.51686  -2
   3   3   4 578.838 8.51686   1
   1   5   0 587.617 8.15941  -3
   2   2   6 587.617 8.15941  -2
   3   3   4 587.617 8.15941   1
   0   4   4 3249.17 34.6264  -3
   0   4   4 3249.17 34.6264  -2
   0   4   4 3249.17 34.6264   1
   1   4   4 408.160 2.89438   1
   1   5   2 201.446 2.56595  -3
   1   3   6 201.446 2.56595  -2
   2   4   4 201.446 2.56595   1
   1   3   6 198.589 2.41355  -3
   1   5   2 198.589 2.41355  -2
   2   4   4 198.589 2.41355   1
   3   4   4 114.382 1.16937   1
   2   2   8 1945.79 27.1044  -3
   2   6   0 1945.79 27.1044  -2
   4   4   4 1945.79 27.1044   1
   2   6   0 2048.74 25.9157  -3
   2   2   8 2048.74 25.9157  -2
   4   4   4 2048.74 25.9157   1
   0   5   4 19.5214 1.22276   1
   1   5   4 658.453 7.01347  -3
   0   4   6 658.453 7.01347  -2
   1   5   4 658.453 7.01347   1
   0   4   6 674.182 6.77506  -3
   1   5   4 674.182 6.77506  -2
   1   5   4 674.182 6.77506   1
   2   5   4 4.57269 0.42927   1
   2   6   2 1383.61 14.2408  -3
   1   3   8 1383.61 14.2408  -2
   3   5   4 1383.61 14.2408   1
   1   3   8 1339.80 13.7757  -3
   2   6   2 1339.80 13.7757  -2
   3   5   4 1339.80 13.7757   1
   4   5   4 11.0169 0.56041   1
   2   2  10 128.644 3.18101  -3
   3   7   0 128.644 3.18101  -2
   5   5   4 128.644 3.18101   1
   3   7   0 134.293 3.05107  -3
   2   2  10 134.293 3.05107  -2
   5   5   4 134.293 3.05107   1
   1   5   6 273.914 3.50571  -3
   1   5   6 273.914 3.50571  -2
   0   6   4 273.914 3.50571   1
   1   6   4 273.718 2.24885   1
   2   6   4 1200.19 13.2488  -3
   0   4   8 1200.19 13.2488  -2
   2   6   4 1200.19 13.2488   1
   0   4   8 1173.62 11.8368  -3
   2   6   4 1173.62 11.8368  -2
   2   6   4 1173.62 11.8368   1
   3   6   4 108.849 1.19943   1
   3   7   2 205.414 2.94463  -3
   1   3  10 205.414 2.94463  -2
   4   6   4 205.414 2.94463   1
   1   3  10 205.340 3.09025  -3
   3   7   2 205.340 3.09025  -2
   4   6   4 205.340 3.09025   1
   5   6   4 20.3773 0.78257   1
   2   2  12 706.941 12.1246  -3
   4   8   0 706.941 12.1246  -2
   6   6   4 706.941 12.1246   1
   4   8   0 746.501 11.7531  -3
   2   2  12 746.501 11.7531  -2
   6   6   4 746.501 11.7531   1
   0   7   4 1.49822 0.85327   1
   2   6   6 566.415 7.47443  -3
   1   5   8 566.415 7.47443  -2
   1   7   4 566.415 7.47443   1
   1   5   8 546.216 5.71639  -3
   2   6   6 546.216 5.71639  -2
   1   7   4 546.216 5.71639   1
   2   7   4 22.9282 0.80059   1
   0   4  10 142.885 2.34610  -3
   3   7   4 142.885 2.34610  -2
   3   7   4 142.885 2.34610   1
   3   7   4 142.475 2.81979  -3
   0   4  10 142.475 2.81979  -2
   3   7   4 142.475 2.81979   1
   4   7   4 11.8209 0.71765   1
   4   8   2 575.277 7.04969  -3
   1   3  12 575.277 7.04969  -2
   5   7   4 575.277 7.04969   1
   1   3  12 533.119 6.96188  -3
   4   8   2 533.119 6.96188  -2
   5   7   4 533.119 6.96188   1
   6   7   4 2.56506 0.82123   1
   5   9   0 77.5630 3.21421  -3
   2   2  14 77.5630 3.21421  -2
   7   7   4 77.5630 3.21421   1
   2   2  14 65.0651 3.95633  -3
   5   9   0 65.0651 3.95633  -2
   7   7   4 65.0651 3.95633   1
   2   6   8 410.216 6.96061  -3
   2   6   8 410.216 6.96061  -2
   0   8   4 410.216 6.96061   1
   1   8   4 89.8806 1.54956   1
   1   5  10 232.208 3.34422  -3
   3   7   6 232.208 3.34422  -2
   2   8   4 232.208 3.34422   1
   3   7   6 226.518 3.63252  -3
   1   5  10 226.518 3.63252  -2
   2   8   4 226.518 3.63252   1
   3   8   4 70.6746 1.33909   1
   4   8   4 459.005 6.33483  -3
   0   4  12 459.005 6.33483  -2
   4   8   4 459.005 6.33483   1
   0   4  12 443.682 5.93478  -3
   4   8   4 443.682 5.93478  -2
   4   8   4 443.682 5.93478   1
   5   8   4 23.8151 0.92887   1
   5   9   2 65.8920 2.22130  -3
   1   3  14 65.8920 2.22130  -2
   6   8   4 65.8920 2.22130   1
   1   3  14 53.3241 2.57025  -3
   5   9   2 53.3241 2.57025  -2
   6   8   4 53.3241 2.57025   1
   7   8   4 3.45153 1.11156   1
   2   2  16 245.880 11.0545  -3
   6  10   0 245.880 11.0545  -2
   8   8   4 245.880 11.0545   1
   6  10   0 279.091 10.8885  -3
   2   2  16 279.091 10.8885  -2
   8   8   4 279.091 10.8885   1
   0   9   4 1.70236 1.39453   1
   2   6  10 150.412 3.35369  -3
   3   7   8 150.412 3.35369  -2
   1   9   4 150.412 3.35369   1
   3   7   8 153.536 3.75163  -3
   2   6  10 153.536 3.75163  -2
   1   9   4 153.536 3.75163   1
   2   9   4 10.8263 0.91138   1
   4   8   6 255.665 4.74331  -3
   1   5  12 255.665 4.74331  -2
   3   9   4 255.665 4.74331   1
   1   5  12 246.428 4.15465  -3
   4   8   6 246.428 4.15465  -2
   3   9   4 246.428 4.15465   1
   4   9   4 31.2506 1.20081   1
   5   9   4 77.0856 3.21362  -3
   0   4  14 77.0856 3.21362  -2
   5   9   4 77.0856 3.21362   1
   0   4  14 71.4353 2.87417  -3
   5   9   4 71.4353 2.87417  -2
   5   9   4 71.4353 2.87417   1
   6   9   4 14.9184 1.27087   1
   6  10   2 182.616 6.06698  -3
   1   3  16 182.616 6.06698  -2
   7   9   4 182.616 6.06698   1
   1   3  16 159.333 6.72752  -3
   6  10   2 159.333 6.72752  -2
   7   9   4 159.333 6.72752   1
   8   9   4 2.73265 1.63149   1
   3   7  10 183.004 4.32571  -3
   3   7  10 183.004 4.32571  -2
   0  10   4 183.004 4.32571   1
   1  10   4 22.5481 1.29692   1
   4   8   8 182.506 4.30010  -3
   2   6  12 182.506 4.30010  -2
   2  10   4 182.506 4.30010   1
   2   6  12 176.056 4.05964  -3
   4   8   8 176.056 4.05964  -2
   2  10   4 176.056 4.05964   1
   3  10   4 24.4582 1.18881   1
   5   9   6 60.2563 4.19106  -3
   1   5  14 60.2563 4.19106  -2
   4  10   4 60.2563 4.19106   1
   1   5  14 63.6449 3.41493  -3
   5   9   6 63.6449 3.41493  -2
   4  10   4 63.6449 3.41493   1
   5  10   4 17.4653 1.45843   1
   0   4  16 166.741 5.54517  -3
   6  10   4 166.741 5.54517  -2
   6  10   4 166.741 5.54517   1
   6  10   4 188.942 6.68605  -3
   0   4  16 188.942 6.68605  -2
   6  10   4 188.942 6.68605   1
   1   3  17 12.3831 14.2015  -3
   7  10   4 12.3831 14.2015   1
   0  11   4 0.03988 2.09686   1
   3   7  12 80.9726 3.89390  -3
   4   8  10 80.9726 3.89390  -2
   1  11   4 80.9726 3.89390   1
   4   8  10 67.1974 4.38178  -3
   3   7  12 67.1974 4.38178  -2
   1  11   4 67.1974 4.38178   1
   2  11   4 7.28700 1.46675   1
   5   9   8 75.6309 3.79965  -3
   2   6  14 75.6309 3.79965  -2
   3  11   4 75.6309 3.79965   1
   2   6  14 87.9038 7.60334  -3
   5   9   8 87.9038 7.60334  -2
   3  11   4 87.9038 7.60334   1
   4  11   4 11.4655 1.51698   1
   6  10   6 84.3304 4.40078  -3
   1   5  16 84.3304 4.40078  -2
   5  11   4 84.3304 4.40078   1
   1   5  16 83.6912 4.21908  -3
   6  10   6 83.6912 4.21908  -2
   5  11   4 83.6912 4.21908   1
   4   8  12 77.7565 4.13954  -3
   4   8  12 77.7565 4.13954  -2
   0  12   4 77.7565 4.13954   1
   1  12   4 2.66737 1.86647   1
   3   7  14 56.8636 4.83947  -3
   5   9  10 56.8636 4.83947  -2
   2  12   4 56.8636 4.83947   1
   5   9  10 68.1757 4.58374  -3
   3   7  14 68.1757 4.58374  -2
   2  12   4 68.1757 4.58374   1
   0   0   5 1.77040 0.75695   1
   1   1   5 5.02833 0.50919   1
   0   2   5 7.56748 0.54396   1
   1   4   1 55.4074 1.24569  -3
   2   3   3 55.4074 1.24569  -2
   1   2   5 55.4074 1.24569   1
   2   3   3 61.2780 1.22897  -3
   1   4   1 61.2780 1.22897  -2
   1   2   5 61.2780 1.22897   1
   2   2   5 31.6709 0.82880   1
   1   3   5 21.8553 0.52915   1
   2   3   5 12.9201 0.83202  -3
   2   3   5 12.9201 0.83202   1
   2   3   5 13.0363 0.81606  -2
   2   3   5 13.0363 0.81606   1
   3   3   5 61.5404 1.08360   1
   0   4   5 105.325 1.51651   1
   1   4   5 81.2930 1.30336  -2
   1   4   5 81.2930 1.30336   1
   1   4   5 78.7968 1.36624  -3
   1   4   5 78.7968 1.36624   1
   2   4   5 61.5569 0.81271   1
   1   6   1 11.3857 0.97686  -3
   2   3   7 11.3857 0.97686  -2
   3   4   5 11.3857 0.97686   1
   2   3   7 13.0917 0.87534  -3
   1   6   1 13.0917 0.87534  -2
   3   4   5 13.0917 0.87534   1
   4   4   5 83.6419 1.38131   1
   0   5   5 3.08667 0.95637   1
   1   5   5 12.0201 0.51586   1
   1   6   3 20.9083 0.93726  -3
   1   4   7 20.9083 0.93726  -2
   2   5   5 20.9083 0.93726   1
   1   4   7 21.1147 1.02663  -3
   1   6   3 21.1147 1.02663  -2
   2   5   5 21.1147 1.02663   1
   3   5   5 45.7817 0.80956   1
   2   3   9 19.7706 1.18521  -3
   2   7   1 19.7706 1.18521  -2
   4   5   5 19.7706 1.18521   1
   2   7   1 21.2148 1.14485  -3
   2   3   9 21.2148 1.14485  -2
   4   5   5 21.2148 1.14485   1
   5   5   5 50.2459 1.26764   1
   0   6   5 126.544 1.95500   1
   1   6   5 21.8080 1.08368  -3
   1   6   5 21.8080 1.08368   1
   1   6   5 22.2573 1.20529  -2
   1   6   5 22.2573 1.20529   1
   2   6   5 147.975 1.47731   1
   1   4   9 13.3498 1.25677  -3
   2   7   3 13.3498 1.25677  -2
   3   6   5 13.3498 1.25677   1
   2   7   3 16.5879 1.14809  -3
   1   4   9 16.5879 1.14809  -2
   3   6   5 16.5879 1.14809   1
   4   6   5 50.1616 0.99960   1
   2   3  11 14.1168 1.41923  -3
   3   8   1 14.1168 1.41923  -2
   5   6   5 14.1168 1.41923   1
   3   8   1 12.5601 1.44160  -3
   2   3  11 12.5601 1.44160  -2
   5   6   5 12.5601 1.44160   1
   6   6   5 25.9796 1.28854   1
   1   7   5 6.41780 0.69549   1
   2   7   5 30.3372 1.55112  -2
   2   7   5 30.3372 1.55112   1
   2   7   5 30.2086 1.70948  -3
   2   7   5 30.2086 1.70948   1
   3   7   5 17.3452 0.84690   1
   1   4  11 40.1076 1.65977  -3
   3   8   3 40.1076 1.65977  -2
   4   7   5 40.1076 1.65977   1
   3   8   3 45.2223 1.55244  -3
   1   4  11 45.2223 1.55244  -2
   4   7   5 45.2223 1.55244   1
   5   7   5 4.05058 0.74062   1
   2   3  13 42.1157 2.11501  -3
   4   9   1 42.1157 2.11501  -2
   6   7   5 42.1157 2.11501   1
   4   9   1 39.4730 1.99389  -3
   2   3  13 39.4730 1.99389  -2
   6   7   5 39.4730 1.99389   1
   7   7   5 8.15224 1.35367   1
   0   8   5 172.341 3.22207   1
   1   6   9 8.72556 1.61244  -3
   2   7   7 8.72556 1.61244  -2
   1   8   5 8.72556 1.61244   1
   2   7   7 7.41017 1.78068  -3
   1   6   9 7.41017 1.78068  -2
   1   8   5 7.41017 1.78068   1
   2   8   5 81.6299 1.47293   1
   3   8   5 10.0388 1.87799  -2
   3   8   5 10.0388 1.87799   1
   3   8   5 10.9579 1.86863  -3
   3   8   5 10.9579 1.86863   1
   4   8   5 52.1816 1.30479   1
   4   9   3 26.8614 1.82844  -3
   1   4  13 26.8614 1.82844  -2
   5   8   5 26.8614 1.82844   1
   1   4  13 25.8160 1.98042  -3
   4   9   3 25.8160 1.98042  -2
   5   8   5 25.8160 1.98042   1
   6   8   5 4.49949 0.88915   1
   5  10   1 8.11915 3.36585  -3
   2   3  15 8.11915 3.36585  -2
   7   8   5 8.11915 3.36585   1
   2   3  15 16.3911 3.58816  -3
   5  10   1 16.3911 3.58816  -2
   7   8   5 16.3911 3.58816   1
   8   8   5 2.43374 1.89430   1
   1   9   5 5.80086 1.04117   1
   1   6  11 17.7452 2.04286  -3
   3   8   7 17.7452 2.04286  -2
   2   9   5 17.7452 2.04286   1
   3   8   7 16.2850 2.05815  -3
   1   6  11 16.2850 2.05815  -2
   2   9   5 16.2850 2.05815   1
   3   9   5 5.14393 0.96937   1
   4   9   5 42.4766 2.49013  -2
   4   9   5 42.4766 2.49013   1
   4   9   5 41.5773 2.46130  -3
   4   9   5 41.5773 2.46130   1
   5   9   5 4.12929 1.09492   1
   5  10   3 25.2435 3.59370  -3
   1   4  15 25.2435 3.59370  -2
   6   9   5 25.2435 3.59370   1
   1   4  15 35.3954 3.82544  -3
   5  10   3 35.3954 3.82544  -2
   6   9   5 35.3954 3.82544   1
   2   3  16 30.7977 12.9533  -3
   7   9   5 30.7977 12.9533   1
   6  11   1 17.5120 4.66327  -3
   2   3  17 17.5120 4.66327  -2
   8   9   5 17.5120 4.66327   1
   2   3  17 7.68096 12.9774  -3
   6  11   1 7.68096 12.9774  -2
   8   9   5 7.68096 12.9774   1
   0  10   5 57.6009 2.53263   1
   3   8   9 18.8157 2.48531  -3
   2   7  11 18.8157 2.48531  -2
   1  10   5 18.8157 2.48531   1
   2   7  11 21.3939 3.23264  -3
   3   8   9 21.3939 3.23264  -2
   1  10   5 21.3939 3.23264   1
   2  10   5 69.7106 2.03854   1
   4   9   7 21.1954 3.26241  -3
   1   6  13 21.1954 3.26241  -2
   3  10   5 21.1954 3.26241   1
   1   6  13 17.4418 2.63598  -3
   4   9   7 17.4418 2.63598  -2
   3  10   5 17.4418 2.63598   1
   4  10   5 11.7971 1.42701   1
   5  10   5 9.98481 3.31152  -2
   5  10   5 9.98481 3.31152   1
   5  10   5 7.38508 4.86889  -3
   5  10   5 7.38508 4.86889   1
   1   4  16 25.9999 13.1254  -3
   6  10   5 25.9999 13.1254   1
   1  11   5 5.47469 1.58174   1
   2   7  13 17.0753 5.08380  -3
   4   9   9 17.0753 5.08380  -2
   2  11   5 17.0753 5.08380   1
   4   9   9 7.37975 3.36664  -3
   2   7  13 7.37975 3.36664  -2
   2  11   5 7.37975 3.36664   1
   3  11   5 10.9449 1.78831   1
   5  10   7 11.2751 3.50421  -3
   1   6  15 11.2751 3.50421  -2
   4  11   5 11.2751 3.50421   1
   1   6  15 16.4171 3.87012  -3
   5  10   7 16.4171 3.87012  -2
   4  11   5 16.4171 3.87012   1
   5  11   5 17.1066 1.70880   1
   0  12   5 21.3084 3.20639   1
   3   8  13 29.6723 4.02535  -3
   4   9  11 29.6723 4.02535  -2
   1  12   5 29.6723 4.02535   1
   4   9  11 20.9035 3.94178  -3
   3   8  13 20.9035 3.94178  -2
   1  12   5 20.9035 3.94178   1
   3   3   0 938.278 22.9591  -3
   3   3   0 938.278 22.9591  -2
   0   0   6 938.278 22.9591   1
   0   1   6 -0.0883 0.51608   1
   2   4   0 108.574 2.16817  -3
   3   3   2 108.574 2.16817  -2
   1   1   6 108.574 2.16817   1
   3   3   2 112.285 2.43119  -3
   2   4   0 112.285 2.43119  -2
   1   1   6 112.285 2.43119   1
   2   4   2 1015.36 11.1229  -3
   2   4   2 1015.36 11.1229  -2
   0   2   6 1015.36 11.1229   1
   1   2   6 159.950 1.34641   1
   1   5   0 661.282 10.9357  -3
   3   3   4 661.282 10.9357  -2
   2   2   6 661.282 10.9357   1
   3   3   4 678.525 9.84303  -3
   1   5   0 678.525 9.84303  -2
   2   2   6 678.525 9.84303   1
   0   3   6 1.68053 0.55133   1
   2   4   4 77.3058 1.34898  -3
   1   5   2 77.3058 1.34898  -2
   1   3   6 77.3058 1.34898   1
   1   5   2 83.0698 1.35164  -3
   2   4   4 83.0698 1.35164  -2
   1   3   6 83.0698 1.35164   1
   2   3   6 34.6828 0.67803   1
   3   3   6 233.074 3.71246  -3
   0   6   0 233.074 3.71246  -2
   3   3   6 233.074 3.71246   1
   0   6   0 230.678 3.92342  -3
   3   3   6 230.678 3.92342  -2
   3   3   6 230.678 3.92342   1
   1   5   4 485.388 5.14722  -3
   1   5   4 485.388 5.14722  -2
   0   4   6 485.388 5.14722   1
   1   4   6 244.947 1.93330   1
   2   4   6 272.543 3.18544  -3
   0   6   2 272.543 3.18544  -2
   2   4   6 272.543 3.18544   1
   0   6   2 282.822 3.17051  -3
   2   4   6 282.822 3.17051  -2
   2   4   6 282.822 3.17051   1
   3   4   6 113.761 1.18241   1
   3   3   8 284.813 4.30833  -3
   1   7   0 284.813 4.30833  -2
   4   4   6 284.813 4.30833   1
   1   7   0 277.012 4.68078  -3
   3   3   8 277.012 4.68078  -2
   4   4   6 277.012 4.68078   1
   0   5   6 11.9465 0.89150   1
   0   6   4 115.858 1.74175  -3
   1   5   6 115.858 1.74175  -2
   1   5   6 115.858 1.74175   1
   1   5   6 118.126 2.10633  -3
   0   6   4 118.126 2.10633  -2
   1   5   6 118.126 2.10633   1
   2   5   6 2.93586 0.49567   1
   1   7   2 155.671 2.24818  -3
   2   4   8 155.671 2.24818  -2
   3   5   6 155.671 2.24818   1
   2   4   8 145.979 2.21470  -3
   1   7   2 145.979 2.21470  -2
   3   5   6 145.979 2.21470   1
   4   5   6 7.36483 0.59714   1
   2   8   0 199.005 3.99618  -3
   3   3  10 199.005 3.99618  -2
   5   5   6 199.005 3.99618   1
   3   3  10 198.131 4.01784  -3
   2   8   0 198.131 4.01784  -2
   5   5   6 198.131 4.01784   1
   0   6   6 57.2709 2.09642  -3
   0   6   6 57.2709 2.09642  -2
   0   6   6 57.2709 2.09642   1
   1   6   6 186.362 1.74537   1
   1   7   4 225.026 3.00692  -3
   1   5   8 225.026 3.00692  -2
   2   6   6 225.026 3.00692   1
   1   5   8 230.273 3.23160  -3
   1   7   4 230.273 3.23160  -2
   2   6   6 230.273 3.23160   1
   3   6   6 93.3699 1.22890   1
   2   4  10 107.873 2.16103  -3
   2   8   2 107.873 2.16103  -2
   4   6   6 107.873 2.16103   1
   2   8   2 108.531 2.23279  -3
   2   4  10 108.531 2.23279  -2
   4   6   6 108.531 2.23279   1
   5   6   6 11.1051 0.68449   1
   3   3  12 127.493 3.66423  -3
   3   9   0 127.493 3.66423  -2
   6   6   6 127.493 3.66423   1
   3   9   0 127.678 3.66422  -3
   3   3  12 127.678 3.66422  -2
   6   6   6 127.678 3.66422   1
   0   7   6 -0.3727 0.87138   1
   1   7   6 72.5018 1.76035  -3
   0   6   8 72.5018 1.76035  -2
   1   7   6 72.5018 1.76035   1
   0   6   8 64.0063 2.15845  -3
   1   7   6 64.0063 2.15845  -2
   1   7   6 64.0063 2.15845   1
   2   7   6 8.92630 0.68082   1
   2   8   4 111.021 2.44812  -3
   1   5  10 111.021 2.44812  -2
   3   7   6 111.021 2.44812   1
   1   5  10 123.282 2.70110  -3
   2   8   4 123.282 2.70110  -2
   3   7   6 123.282 2.70110   1
   4   7   6 15.7922 0.82383   1
   2   4  12 97.8052 2.31186  -3
   3   9   2 97.8052 2.31186  -2
   5   7   6 97.8052 2.31186   1
   3   9   2 100.569 2.29165  -3
   2   4  12 100.569 2.29165  -2
   5   7   6 100.569 2.29165   1
   6   7   6 3.63783 0.82837   1
   3   3  14 74.5034 3.57821  -3
   4  10   0 74.5034 3.57821  -2
   7   7   6 74.5034 3.57821   1
   4  10   0 86.4322 4.31972  -3
   3   3  14 86.4322 4.31972  -2
   7   7   6 86.4322 4.31972   1
   1   7   8 158.190 3.05505  -3
   1   7   8 158.190 3.05505  -2
   0   8   6 158.190 3.05505   1
   1   8   6 77.3350 1.60665   1
   2   8   6 17.5341 1.92607  -3
   0   6  10 17.5341 1.92607  -2
   2   8   6 17.5341 1.92607   1
   0   6  10 12.5569 2.15856  -3
   2   8   6 12.5569 2.15856  -2
   2   8   6 12.5569 2.15856   1
   3   8   6 41.5994 1.25438   1
   3   9   4 105.652 2.50701  -3
   1   5  12 105.652 2.50701  -2
   4   8   6 105.652 2.50701   1
   1   5  12 105.238 2.92950  -3
   3   9   4 105.238 2.92950  -2
   4   8   6 105.238 2.92950   1
   5   8   6 20.4695 0.95939   1
   4  10   2 60.6242 2.38331  -3
   2   4  14 60.6242 2.38331  -2
   6   8   6 60.6242 2.38331   1
   2   4  14 63.9924 2.86831  -3
   4  10   2 63.9924 2.86831  -2
   6   8   6 63.9924 2.86831   1
   3   3  15 -7.6688 11.2678  -3
   7   8   6 -7.6688 11.2678   1
   5  11   0 68.5509 5.27398  -3
   3   3  16 68.5509 5.27398  -2
   8   8   6 68.5509 5.27398   1
   3   3  16 56.8254 6.04635  -3
   5  11   0 56.8254 6.04635  -2
   8   8   6 56.8254 6.04635   1
   0   9   6 4.72367 1.56084   1
   2   8   8 38.8214 2.89326  -3
   1   7  10 38.8214 2.89326  -2
   1   9   6 38.8214 2.89326   1
   1   7  10 47.4874 2.69934  -3
   2   8   8 47.4874 2.69934  -2
   1   9   6 47.4874 2.69934   1
   2   9   6 17.3227 1.18193   1
   0   6  12 52.6903 2.33618  -3
   3   9   6 52.6903 2.33618  -2
   3   9   6 52.6903 2.33618   1
   3   9   6 44.2945 2.74191  -3
   0   6  12 44.2945 2.74191  -2
   3   9   6 44.2945 2.74191   1
   4   9   6 22.1400 1.20546   1
   1   5  14 51.9583 3.90166  -3
   4  10   4 51.9583 3.90166  -2
   5   9   6 51.9583 3.90166   1
   4  10   4 37.2607 3.45770  -3
   1   5  14 37.2607 3.45770  -2
   5   9   6 37.2607 3.45770   1
   6   9   6 12.0467 1.21697   1
   2   4  16 34.5928 3.53117  -3
   5  11   2 34.5928 3.53117  -2
   7   9   6 34.5928 3.53117   1
   5  11   2 38.3657 4.16644  -3
   2   4  16 38.3657 4.16644  -2
   7   9   6 38.3657 4.16644   1
   2   8  10 9.56726 2.69968  -3
   2   8  10 9.56726 2.69968  -2
   0  10   6 9.56726 2.69968   1
   1  10   6 13.1411 1.37226   1
   1   7  12 78.1345 4.07019  -3
   3   9   8 78.1345 4.07019  -2
   2  10   6 78.1345 4.07019   1
   3   9   8 82.0773 3.86252  -3
   1   7  12 82.0773 3.86252  -2
   2  10   6 82.0773 3.86252   1
   3  10   6 23.1760 1.77362   1
   4  10   6 23.9573 4.60638  -3
   0   6  14 23.9573 4.60638  -2
   4  10   6 23.9573 4.60638   1
   0   6  14 8.62506 4.00841  -3
   4  10   6 8.62506 4.00841  -2
   4  10   6 8.62506 4.00841   1
   5  10   6 11.3097 1.47564   1
   5  11   4 61.8713 4.61988  -3
   1   5  16 61.8713 4.61988  -2
   6  10   6 61.8713 4.61988   1
   1   5  16 58.2769 4.05245  -3
   5  11   4 58.2769 4.05245  -2
   6  10   6 58.2769 4.05245   1
   0  11   6 5.89418 2.16481   1
   2   8  12 25.9546 4.39012  -3
   3   9  10 25.9546 4.39012  -2
   1  11   6 25.9546 4.39012   1
   3   9  10 34.2729 3.97388  -3
   2   8  12 34.2729 3.97388  -2
   1  11   6 34.2729 3.97388   1
   1   7  13 4.88123 10.8802  -3
   2  11   6 4.88123 10.8802   1
   4  10   8 21.7306 3.66596  -3
   1   7  14 21.7306 3.66596  -2
   3  11   6 21.7306 3.66596   1
   1   7  14 2.82231 5.12288  -3
   4  10   8 2.82231 5.12288  -2
   3  11   6 2.82231 5.12288   1
   4  11   6 9.83237 1.76131   1
   0   0   7 0.23942 0.88219   1
   1   1   7 4.11130 0.54900   1
   0   2   7 4.81025 0.56216   1
   2   5   1 35.4990 0.99119  -3
   3   4   3 35.4990 0.99119  -2
   1   2   7 35.4990 0.99119   1
   3   4   3 35.1906 1.09542  -3
   2   5   1 35.1906 1.09542  -2
   1   2   7 35.1906 1.09542   1
   2   2   7 13.4058 0.71194   1
   1   3   7 7.14633 0.48490   1
   1   6   1 10.3016 0.96577  -3
   3   4   5 10.3016 0.96577  -2
   2   3   7 10.3016 0.96577   1
   3   4   5 11.9551 0.96598  -3
   1   6   1 11.9551 0.96598  -2
   2   3   7 11.9551 0.96598   1
   3   3   7 53.6407 1.31096   1
   0   4   7 46.7122 1.15210   1
   1   6   3 44.2653 1.07319  -3
   2   5   5 44.2653 1.07319  -2
   1   4   7 44.2653 1.07319   1
   2   5   5 45.8013 1.30712  -3
   1   6   3 45.8013 1.30712  -2
   1   4   7 45.8013 1.30712   1
   2   4   7 54.7560 0.88455   1
   3   4   7 7.19451 1.09142  -2
   3   4   7 7.19451 1.09142   1
   3   4   7 7.03615 1.10725  -3
   3   4   7 7.03615 1.10725   1
   4   4   7 51.6469 1.25572   1
   1   5   7 19.9826 0.66874   1
   2   5   7 3.16450 1.00128  -2
   2   5   7 3.16450 1.00128   1
   2   5   7 3.16927 1.11894  -3
   2   5   7 3.16927 1.11894   1
   3   5   7 34.8727 0.80098   1
   1   8   1 12.5590 1.30763  -3
   3   4   9 12.5590 1.30763  -2
   4   5   7 12.5590 1.30763   1
   3   4   9 8.18606 1.35550  -3
   1   8   1 8.18606 1.35550  -2
   4   5   7 8.18606 1.35550   1
   5   5   7 42.2903 1.36549   1
   0   6   7 113.015 1.94454   1
   1   6   7 14.3712 1.52499  -3
   1   6   7 14.3712 1.52499   1
   1   6   7 13.7720 1.26137  -2
   1   6   7 13.7720 1.26137   1
   2   6   7 89.5619 1.27685   1
   1   8   3 5.61635 1.43107  -3
   2   5   9 5.61635 1.43107  -2
   3   6   7 5.61635 1.43107   1
   2   5   9 6.20596 1.41416  -3
   1   8   3 6.20596 1.41416  -2
   3   6   7 6.20596 1.41416   1
   4   6   7 41.4761 1.07570   1
   2   9   1 8.56544 1.58280  -3
   3   4  11 8.56544 1.58280  -2
   5   6   7 8.56544 1.58280   1
   3   4  11 14.4088 1.66811  -3
   2   9   1 14.4088 1.66811  -2
   5   6   7 14.4088 1.66811   1
   6   6   7 19.5655 1.26830   1
   0   7   7 0.10230 1.54193   1
   1   7   7 5.25515 0.79428   1
   1   6   9 19.4591 1.66556  -3
   1   8   5 19.4591 1.66556  -2
   2   7   7 19.4591 1.66556   1
   1   8   5 20.5956 1.50034  -3
   1   6   9 20.5956 1.50034  -2
   2   7   7 20.5956 1.50034   1
   3   7   7 18.3094 0.86691   1
   2   9   3 36.8915 1.78631  -3
   2   5  11 36.8915 1.78631  -2
   4   7   7 36.8915 1.78631   1
   2   5  11 38.3390 1.83506  -3
   2   9   3 38.3390 1.83506  -2
   4   7   7 38.3390 1.83506   1
   5   7   7 3.63663 0.80593   1
   3  10   1 31.7703 2.41662  -3
   3   4  13 31.7703 2.41662  -2
   6   7   7 31.7703 2.41662   1
   3   4  13 28.5323 2.26593  -3
   3  10   1 28.5323 2.26593  -2
   6   7   7 28.5323 2.26593   1
   7   7   7 5.74397 1.54125   1
   0   8   7 119.656 2.44277   1
   1   8   7 1.74246 1.88531  -2
   1   8   7 1.74246 1.88531   1
   1   8   7 2.95696 1.57623  -3
   1   8   7 2.95696 1.57623   1
   2   8   7 65.0963 1.64495   1
   2   9   5 11.8746 1.50989  -3
   1   6  11 11.8746 1.50989  -2
   3   8   7 11.8746 1.50989   1
   1   6  11 8.75521 1.79929  -3
   2   9   5 8.75521 1.79929  -2
   3   8   7 8.75521 1.79929   1
   4   8   7 39.6150 1.19769   1
   2   5  13 15.0090 2.16417  -3
   3  10   3 15.0090 2.16417  -2
   5   8   7 15.0090 2.16417   1
   3  10   3 14.6230 2.04385  -3
   2   5  13 14.6230 2.04385  -2
   5   8   7 14.6230 2.04385   1
   6   8   7 3.40157 1.00714   1
   4  11   1 11.4716 3.14107  -3
   3   4  15 11.4716 3.14107  -2
   7   8   7 11.4716 3.14107   1
   3   4  15 17.3597 3.59034  -3
   4  11   1 17.3597 3.59034  -2
   7   8   7 17.3597 3.59034   1
   8   8   7 2.68253 2.14858   1
   1   9   7 4.11294 1.05110   1
   2   9   7 10.8704 2.69073  -3
   2   9   7 10.8704 2.69073   1
   2   9   7 12.7088 2.34950  -2
   2   9   7 12.7088 2.34950   1
   3   9   7 7.31499 1.15885   1
   3  10   5 31.6356 2.78363  -3
   1   6  13 31.6356 2.78363  -2
   4   9   7 31.6356 2.78363   1
   1   6  13 40.8675 2.94629  -3
   3  10   5 40.8675 2.94629  -2
   4   9   7 40.8675 2.94629   1
   5   9   7 0.54150 1.28452   1
   4  11   3 20.3684 3.24063  -3
   2   5  15 20.3684 3.24063  -2
   6   9   7 20.3684 3.24063   1
   2   5  15 18.8268 3.42468  -3
   4  11   3 18.8268 3.42468  -2
   6   9   7 18.8268 3.42468   1
   3   4  16 -13.696 14.3883  -3
   7   9   7 -13.696 14.3883   1
   0  10   7 44.1204 2.68572   1
   2   9   9 20.8824 3.26676  -3
   1   8  11 20.8824 3.26676  -2
   1  10   7 20.8824 3.26676   1
   1   8  11 13.8878 3.67064  -3
   2   9   9 13.8878 3.67064  -2
   1  10   7 13.8878 3.67064   1
   2  10   7 46.8339 1.97090   1
   3  10   7 17.8521 3.80411  -2
   3  10   7 17.8521 3.80411   1
   3  10   7 15.9659 4.38350  -3
   3  10   7 15.9659 4.38350   1
   4  10   7 14.2412 1.61517   1
   1   6  15 16.9359 3.71768  -3
   4  11   5 16.9359 3.71768  -2
   5  10   7 16.9359 3.71768   1
   4  11   5 16.8102 4.88754  -3
   1   6  15 16.8102 4.88754  -2
   5  10   7 16.8102 4.88754   1
   1  11   7 9.18487 1.69904   1
   1   8  13 14.4540 6.57344  -3
   3  10   9 14.4540 6.57344  -2
   2  11   7 14.4540 6.57344   1
   3  10   9 4.42799 3.95380  -3
   1   8  13 4.42799 3.95380  -2
   2  11   7 4.42799 3.95380   1
   3  11   7 6.02151 1.79497   1
   4   4   0 3671.95 67.7569  -3
   4   4   0 3671.95 67.7569  -2
   0   0   8 3671.95 67.7569   1
   0   1   8 -0.2566 0.57330   1
   3   5   0 966.787 13.0720  -3
   4   4   2 966.787 13.0720  -2
   1   1   8 966.787 13.0720   1
   4   4   2 1054.42 15.0004  -3
   3   5   0 1054.42 15.0004  -2
   1   1   8 1054.42 15.0004   1
   3   5   2 158.362 2.27816  -3
   3   5   2 158.362 2.27816  -2
   0   2   8 158.362 2.27816   1
   1   2   8 69.8354 0.94403   1
   4   4   4 2356.16 32.7474  -3
   2   6   0 2356.16 32.7474  -2
   2   2   8 2356.16 32.7474   1
   2   6   0 2421.56 38.1460  -3
   4   4   4 2421.56 38.1460  -2
   2   2   8 2421.56 38.1460   1
   0   3   8 0.37254 0.60114   1
   3   5   4 1031.53 11.0604  -3
   2   6   2 1031.53 11.0604  -2
   1   3   8 1031.53 11.0604   1
   2   6   2 1109.10 10.6111  -3
   3   5   4 1109.10 10.6111  -2
   1   3   8 1109.10 10.6111   1
   2   3   8 42.4515 0.85234   1
   1   7   0 366.723 6.29891  -3
   4   4   6 366.723 6.29891  -2
   3   3   8 366.723 6.29891   1
   4   4   6 381.650 6.10418  -3
   1   7   0 381.650 6.10418  -2
   3   3   8 381.650 6.10418   1
   2   6   4 1479.38 14.7651  -3
   2   6   4 1479.38 14.7651  -2
   0   4   8 1479.38 14.7651   1
   1   4   8 175.691 1.63337   1
   3   5   6 162.780 2.41052  -3
   1   7   2 162.780 2.41052  -2
   2   4   8 162.780 2.41052   1
   1   7   2 166.698 2.22851  -3
   3   5   6 166.698 2.22851  -2
   2   4   8 166.698 2.22851   1
   3   4   8 57.3726 1.01066   1
   0   8   0 969.091 16.0053  -3
   4   4   8 969.091 16.0053  -2
   4   4   8 969.091 16.0053   1
   4   4   8 910.892 15.0864  -3
   0   8   0 910.892 15.0864  -2
   4   4   8 910.892 15.0864   1
   0   5   8 6.43937 0.85071   1
   2   6   6 440.011 5.54693  -3
   1   7   4 440.011 5.54693  -2
   1   5   8 440.011 5.54693   1
   1   7   4 406.767 4.42041  -3
   2   6   6 406.767 4.42041  -2
   1   5   8 406.767 4.42041   1
   2   5   8 3.79792 0.59877   1
   0   8   2 856.800 9.69875  -3
   3   5   8 856.800 9.69875  -2
   3   5   8 856.800 9.69875   1
   3   5   8 807.500 9.90443  -3
   0   8   2 807.500 9.90443  -2
   3   5   8 807.500 9.90443   1
   4   5   8 4.33438 0.69918   1
   1   9   0 98.0821 3.34351  -3
   4   4  10 98.0821 3.34351  -2
   5   5   8 98.0821 3.34351   1
   4   4  10 97.7292 3.50293  -3
   1   9   0 97.7292 3.50293  -2
   5   5   8 97.7292 3.50293   1
   1   7   6 183.417 2.91032  -3
   1   7   6 183.417 2.91032  -2
   0   6   8 183.417 2.91032   1
   1   6   8 128.933 1.59565   1
   2   6   8 564.006 7.49985  -3
   0   8   4 564.006 7.49985  -2
   2   6   8 564.006 7.49985   1
   0   8   4 575.508 6.67958  -3
   2   6   8 575.508 6.67958  -2
   2   6   8 575.508 6.67958   1
   3   6   8 55.4034 1.11474   1
   1   9   2 139.527 2.57109  -3
   3   5  10 139.527 2.57109  -2
   4   6   8 139.527 2.57109   1
   3   5  10 129.520 2.57079  -3
   1   9   2 129.520 2.57079  -2
   4   6   8 129.520 2.57079   1
   5   6   8 9.21083 0.80199   1
   2  10   0 384.858 8.82257  -3
   4   4  12 384.858 8.82257  -2
   6   6   8 384.858 8.82257   1
   4   4  12 363.886 7.11504  -3
   2  10   0 363.886 7.11504  -2
   6   6   8 363.886 7.11504   1
   0   7   8 0.77955 1.07995   1
   0   8   6 375.255 5.50518  -3
   1   7   8 375.255 5.50518  -2
   1   7   8 375.255 5.50518   1
   1   7   8 371.387 5.77414  -3
   0   8   6 371.387 5.77414  -2
   1   7   8 371.387 5.77414   1
   2   7   8 12.5575 0.89069   1
   1   9   4 110.482 2.58998  -3
   2   6  10 110.482 2.58998  -2
   3   7   8 110.482 2.58998   1
   2   6  10 115.277 2.73096  -3
   1   9   4 115.277 2.73096  -2
   3   7   8 115.277 2.73096   1
   4   7   8 7.37782 0.83736   1
   2  10   2 372.531 5.22254  -3
   3   5  12 372.531 5.22254  -2
   5   7   8 372.531 5.22254   1
   3   5  12 352.679 5.00881  -3
   2  10   2 352.679 5.00881  -2
   5   7   8 352.679 5.00881   1
   6   7   8 4.42010 1.01867   1
   4   4  14 62.4128 5.78483  -3
   3  11   0 62.4128 5.78483  -2
   7   7   8 62.4128 5.78483   1
   3  11   0 63.2186 4.93629  -3
   4   4  14 63.2186 4.93629  -2
   7   7   8 63.2186 4.93629   1
   0   8   8 211.190 3.64905  -3
   0   8   8 211.190 3.64905  -2
   0   8   8 211.190 3.64905   1
   1   8   8 49.4504 1.35750   1
   1   9   6 142.604 2.93529  -3
   1   7  10 142.604 2.93529  -2
   2   8   8 142.604 2.93529   1
   1   7  10 149.678 3.51487  -3
   1   9   6 149.678 3.51487  -2
   2   8   8 149.678 3.51487   1
   3   8   8 39.7564 1.24627   1
   2   6  12 238.160 4.41120  -3
   2  10   4 238.160 4.41120  -2
   4   8   8 238.160 4.41120   1
   2  10   4 242.457 4.21346  -3
   2   6  12 242.457 4.21346  -2
   4   8   8 242.457 4.21346   1
   5   8   8 14.7521 1.06846   1
   3  11   2 52.6738 3.59906  -3
   3   5  14 52.6738 3.59906  -2
   6   8   8 52.6738 3.59906   1
   3   5  14 29.4832 4.13278  -3
   3  11   2 29.4832 4.13278  -2
   6   8   8 29.4832 4.13278   1
   7   8   8 1.40165 1.33828   1
   0   9   8 0.64439 1.71965   1
   1   9   8 115.182 3.67390  -3
   0   8  10 115.182 3.67390  -2
   1   9   8 115.182 3.67390   1
   0   8  10 122.340 3.10522  -3
   1   9   8 122.340 3.10522  -2
   1   9   8 122.340 3.10522   1
   2   9   8 6.12129 1.26309   1
   2  10   6 177.398 5.88144  -3
   1   7  12 177.398 5.88144  -2
   3   9   8 177.398 5.88144   1
   1   7  12 176.386 4.87019  -3
   2  10   6 176.386 4.87019  -2
   3   9   8 176.386 4.87019   1
   4   9   8 17.5703 1.42907   1
   3  11   4 53.5686 3.26784  -3
   2   6  14 53.5686 3.26784  -2
   5   9   8 53.5686 3.26784   1
   2   6  14 60.4107 3.35182  -3
   3  11   4 60.4107 3.35182  -2
   5   9   8 60.4107 3.35182   1
   6   9   8 9.62011 1.35977   1
   1   9  10 113.985 4.87034  -3
   1   9  10 113.985 4.87034  -2
   0  10   8 113.985 4.87034   1
   1  10   8 10.7981 1.51902   1
   0   8  12 98.1120 4.15728  -3
   2  10   8 98.1120 4.15728  -2
   2  10   8 98.1120 4.15728   1
   2  10   8 100.059 4.84948  -3
   0   8  12 100.059 4.84948  -2
   2  10   8 100.059 4.84948   1
   3  10   8 13.8121 1.79028   1
   1   7  14 43.9515 3.80472  -3
   3  11   6 43.9515 3.80472  -2
   4  10   8 43.9515 3.80472   1
   3  11   6 43.3693 4.97615  -3
   1   7  14 43.3693 4.97615  -2
   4  10   8 43.3693 4.97615   1
   2   6  15 12.7249 13.9145  -3
   5  10   8 12.7249 13.9145   1
   0  11   8 1.18304 2.26248   1
   1   9  12 67.0736 4.89640  -3
   2  10  10 67.0736 4.89640  -2
   1  11   8 67.0736 4.89640   1
   2  10  10 62.1432 4.98651  -3
   1   9  12 62.1432 4.98651  -2
   1  11   8 62.1432 4.98651   1
   2  11   8 7.32142 1.81071   1
   0   0   9 4.46838 1.51634   1
   1   1   9 1.43246 0.66590   1
   0   2   9 0.80617 0.68946   1
   4   5   3 20.9746 1.11310  -3
   3   6   1 20.9746 1.11310  -2
   1   2   9 20.9746 1.11310   1
   3   6   1 20.5157 1.12016  -3
   4   5   3 20.5157 1.12016  -2
   1   2   9 20.5157 1.12016   1
   2   2   9 9.95175 0.87482   1
   1   3   9 9.98829 0.62225   1
   4   5   5 18.5987 1.47352  -3
   2   7   1 18.5987 1.47352  -2
   2   3   9 18.5987 1.47352   1
   2   7   1 15.3549 1.20913  -3
   4   5   5 15.3549 1.20913  -2
   2   3   9 15.3549 1.20913   1
   3   3   9 36.4059 1.32589   1
   0   4   9 43.0912 1.22860   1
   3   6   5 37.6895 1.53540  -3
   2   7   3 37.6895 1.53540  -2
   1   4   9 37.6895 1.53540   1
   2   7   3 34.7274 1.31525  -3
   3   6   5 34.7274 1.31525  -2
   1   4   9 34.7274 1.31525   1
   2   4   9 31.0562 0.85754   1
   1   8   1 9.32764 1.49732  -3
   4   5   7 9.32764 1.49732  -2
   3   4   9 9.32764 1.49732   1
   4   5   7 9.24999 1.39868  -3
   1   8   1 9.24999 1.39868  -2
   3   4   9 9.24999 1.39868   1
   4   4   9 41.8666 1.54685   1
   1   5   9 6.16437 0.71206   1
   1   8   3 5.97152 1.28295  -3
   3   6   7 5.97152 1.28295  -2
   2   5   9 5.97152 1.28295   1
   3   6   7 4.84940 1.35194  -3
   1   8   3 4.84940 1.35194  -2
   2   5   9 4.84940 1.35194   1
   3   5   9 26.3315 0.89378   1
   4   5   9 5.59803 1.58198  -2
   4   5   9 5.59803 1.58198   1
   4   5   9 4.30051 1.70886  -3
   4   5   9 4.30051 1.70886   1
   5   5   9 32.8114 1.53400   1
   0   6   9 58.6329 1.69309   1
   2   7   7 14.8759 1.63689  -3
   1   8   5 14.8759 1.63689  -2
   1   6   9 14.8759 1.63689   1
   1   8   5 13.0219 1.52087  -3
   2   7   7 13.0219 1.52087  -2
   1   6   9 13.0219 1.52087   1
   2   6   9 65.7937 1.30915   1
   3   6   9 0.11056 1.58151  -3
   3   6   9 0.11056 1.58151   1
   3   6   9 -0.6432 1.55641  -2
   3   6   9 -0.6432 1.55641   1
   4   6   9 26.3262 1.01886   1
   4   5  11 17.5646 2.01998  -3
   1  10   1 17.5646 2.01998  -2
   5   6   9 17.5646 2.01998   1
   1  10   1 15.0441 1.91430  -3
   4   5  11 15.0441 1.91430  -2
   5   6   9 15.0441 1.91430   1
   6   6   9 12.5802 1.37599   1
   1   7   9 3.29396 0.83137   1
   2   7   9 17.8183 2.28583  -3
   2   7   9 17.8183 2.28583   1
   2   7   9 13.0739 1.72519  -2
   2   7   9 13.0739 1.72519   1
   3   7   9 7.91622 0.88615   1
   3   6  11 25.8106 1.88326  -3
   1  10   3 25.8106 1.88326  -2
   4   7   9 25.8106 1.88326   1
   1  10   3 30.7790 1.90683  -3
   3   6  11 30.7790 1.90683  -2
   4   7   9 30.7790 1.90683   1
   5   7   9 4.17119 0.95603   1
   2  11   1 20.4568 2.98330  -3
   4   5  13 20.4568 2.98330  -2
   6   7   9 20.4568 2.98330   1
   4   5  13 15.5028 3.37301  -3
   2  11   1 15.5028 3.37301  -2
   6   7   9 15.5028 3.37301   1
   7   7   9 4.26020 1.73658   1
   0   8   9 82.7186 2.54977   1
   1   8   9 -0.3850 2.18330  -3
   1   8   9 -0.3850 2.18330   1
   1   8   9 1.48778 1.91154  -2
   1   8   9 1.48778 1.91154   1
   2   8   9 48.3650 1.45653   1
   2   7  11 4.34560 2.33682  -3
   1  10   5 4.34560 2.33682  -2
   3   8   9 4.34560 2.33682   1
   1  10   5 9.86779 2.05993  -3
   2   7  11 9.86779 2.05993  -2
   3   8   9 9.86779 2.05993   1
   4   8   9 29.0484 1.24559   1
   3   6  13 10.9887 3.22871  -3
   2  11   3 10.9887 3.22871  -2
   5   8   9 10.9887 3.22871   1
   2  11   3 10.1578 3.24775  -3
   3   6  13 10.1578 3.24775  -2
   5   8   9 10.1578 3.24775   1
   6   8   9 2.72805 1.28922   1
   4   5  15 2.71449 4.16202  -3
   3  12   1 2.71449 4.16202  -2
   7   8   9 2.71449 4.16202   1
   3  12   1 8.15347 5.27108  -3
   4   5  15 8.15347 5.27108  -2
   7   8   9 8.15347 5.27108   1
   0   9   9 0.34910 2.32404   1
   1   9   9 1.65496 1.13616   1
   1  10   7 17.7077 3.29656  -3
   1   8  11 17.7077 3.29656  -2
   2   9   9 17.7077 3.29656   1
   1   8  11 7.20161 2.89317  -3
   1  10   7 7.20161 2.89317  -2
   2   9   9 7.20161 2.89317   1
   3   9   9 4.09538 1.57727   1
   2   7  13 11.9521 3.17844  -3
   2  11   5 11.9521 3.17844  -2
   4   9   9 11.9521 3.17844   1
   2  11   5 22.9453 2.97290  -3
   2   7  13 22.9453 2.97290  -2
   4   9   9 22.9453 2.97290   1
   5   9   9 3.66910 1.33079   1
   3   6  15 23.8384 4.61246  -3
   3  12   3 23.8384 4.61246  -2
   6   9   9 23.8384 4.61246   1
   3  12   3 12.6588 3.81370  -3
   3   6  15 12.6588 3.81370  -2
   6   9   9 12.6588 3.81370   1
   0  10   9 39.3734 3.37932   1
   1  10   9 14.7206 3.46841  -2
   1  10   9 14.7206 3.46841   1
   1  10   9 3.26816 6.23398  -3
   1  10   9 3.26816 6.23398   1
   2  10   9 40.5604 2.06126   1
   1   8  13 9.19528 3.30429  -3
   2  11   7 9.19528 3.30429  -2
   3  10   9 9.19528 3.30429   1
   2  11   7 1.65772 3.45648  -3
   1   8  13 1.65772 3.45648  -2
   3  10   9 1.65772 3.45648   1
   4  10   9 8.54615 1.92148   1
   5   5   0 283.775 7.29987  -3
   5   5   0 283.775 7.29987  -2
   0   0  10 283.775 7.29987   1
   0   1  10 -0.2275 0.72642   1
   4   6   0 101.999 2.58194  -3
   5   5   2 101.999 2.58194  -2
   1   1  10 101.999 2.58194   1
   5   5   2 103.778 2.56271  -3
   4   6   0 103.778 2.56271  -2
   1   1  10 103.778 2.56271   1
   4   6   2 339.739 4.06397  -3
   4   6   2 339.739 4.06397  -2
   0   2  10 339.739 4.06397   1
   1   2  10 52.8870 0.92215   1
   3   7   0 188.807 3.51424  -3
   5   5   4 188.807 3.51424  -2
   2   2  10 188.807 3.51424   1
   5   5   4 190.058 4.09954  -3
   3   7   0 190.058 4.09954  -2
   2   2  10 190.058 4.09954   1
   0   3  10 1.30140 0.84741   1
   3   7   2 75.5094 1.81413  -3
   4   6   4 75.5094 1.81413  -2
   1   3  10 75.5094 1.81413   1
   4   6   4 71.8935 1.76820  -3
   3   7   2 71.8935 1.76820  -2
   1   3  10 71.8935 1.76820   1
   2   3  10 16.2371 0.86160   1
   2   8   0 148.933 4.06277  -3
   5   5   6 148.933 4.06277  -2
   3   3  10 148.933 4.06277   1
   5   5   6 144.432 4.04922  -3
   2   8   0 144.432 4.04922  -2
   3   3  10 144.432 4.04922   1
   3   7   4 122.292 2.35128  -3
   3   7   4 122.292 2.35128  -2
   0   4  10 122.292 2.35128   1
   1   4  10 90.2846 1.31722   1
   4   6   6 95.0482 2.41088  -3
   2   8   2 95.0482 2.41088  -2
   2   4  10 95.0482 2.41088   1
   2   8   2 105.419 2.20860  -3
   4   6   6 105.419 2.20860  -2
   2   4  10 105.419 2.20860   1
   3   4  10 48.4772 1.20786   1
   1   9   0 85.1385 3.65562  -3
   5   5   8 85.1385 3.65562  -2
   4   4  10 85.1385 3.65562   1
   5   5   8 82.6513 3.04073  -3
   1   9   0 82.6513 3.04073  -2
   4   4  10 82.6513 3.04073   1
   0   5  10 4.96982 1.06383   1
   3   7   6 91.6491 2.58551  -3
   2   8   4 91.6491 2.58551  -2
   1   5  10 91.6491 2.58551   1
   2   8   4 79.7468 2.01445  -3
   3   7   6 79.7468 2.01445  -2
   1   5  10 79.7468 2.01445   1
   2   5  10 2.10072 0.73374   1
   4   6   8 71.3886 2.36429  -3
   1   9   2 71.3886 2.36429  -2
   3   5  10 71.3886 2.36429   1
   1   9   2 78.0038 2.35677  -3
   4   6   8 78.0038 2.35677  -2
   3   5  10 78.0038 2.35677   1
   4   5  10 4.59508 0.88366   1
   5   5  10 117.053 3.97309  -3
   0  10   0 117.053 3.97309  -2
   5   5  10 117.053 3.97309   1
   0  10   0 116.681 3.72622  -3
   5   5  10 116.681 3.72622  -2
   5   5  10 116.681 3.72622   1
   2   8   6 24.3130 1.97006  -3
   2   8   6 24.3130 1.97006  -2
   0   6  10 24.3130 1.97006   1
   1   6  10 70.9123 1.36779   1
   1   9   4 62.6255 2.15150  -3
   3   7   8 62.6255 2.15150  -2
   2   6  10 62.6255 2.15150   1
   3   7   8 71.8730 2.38583  -3
   1   9   4 71.8730 2.38583  -2
   2   6  10 71.8730 2.38583   1
   3   6  10 42.9186 1.24281   1
   0  10   2 51.5192 2.16160  -3
   4   6  10 51.5192 2.16160  -2
   4   6  10 51.5192 2.16160   1
   4   6  10 45.1802 2.24959  -3
   0  10   2 45.1802 2.24959  -2
   4   6  10 45.1802 2.24959   1
   5   6  10 2.01907 0.97382   1
   5   5  12 52.3598 4.20579  -3
   1  11   0 52.3598 4.20579  -2
   6   6  10 52.3598 4.20579   1
   1  11   0 43.6792 4.44380  -3
   5   5  12 43.6792 4.44380  -2
   6   6  10 43.6792 4.44380   1
   0   7  10 -1.1569 1.17956   1
   1   9   6 47.9190 2.37071  -3
   2   8   8 47.9190 2.37071  -2
   1   7  10 47.9190 2.37071   1
   2   8   8 41.1327 2.36882  -3
   1   9   6 41.1327 2.36882  -2
   1   7  10 41.1327 2.36882   1
   2   7  10 6.10781 0.96257   1
   0  10   4 72.5105 2.38461  -3
   3   7  10 72.5105 2.38461  -2
   3   7  10 72.5105 2.38461   1
   3   7  10 68.3325 2.65944  -3
   0  10   4 68.3325 2.65944  -2
   3   7  10 68.3325 2.65944   1
   4   7  10 8.48281 1.00400   1
   4   6  12 51.1052 3.10059  -3
   1  11   2 51.1052 3.10059  -2
   5   7  10 51.1052 3.10059   1
   1  11   2 56.6058 3.54414  -3
   4   6  12 56.6058 3.54414  -2
   5   7  10 56.6058 3.54414   1
   6   7  10 3.65854 1.25523   1
   5   5  14 51.6358 5.89420  -3
   2  12   0 51.6358 5.89420  -2
   7   7  10 51.6358 5.89420   1
   2  12   0 45.2872 6.18260  -3
   5   5  14 45.2872 6.18260  -2
   7   7  10 45.2872 6.18260   1
   1   9   8 57.1523 2.44327  -3
   1   9   8 57.1523 2.44327  -2
   0   8  10 57.1523 2.44327   1
   1   8  10 37.0937 1.35941   1
   0  10   6 7.98382 2.52889  -3
   2   8  10 7.98382 2.52889  -2
   2   8  10 7.98382 2.52889   1
   2   8  10 12.0074 2.37844  -3
   0  10   6 12.0074 2.37844  -2
   2   8  10 12.0074 2.37844   1
   3   8  10 16.9806 1.35481   1
   3   7  12 42.3020 3.26630  -3
   1  11   4 42.3020 3.26630  -2
   4   8  10 42.3020 3.26630   1
   1  11   4 49.1092 3.74997  -3
   3   7  12 49.1092 3.74997  -2
   4   8  10 49.1092 3.74997   1
   5   8  10 11.2609 1.32074   1
   2  12   2 37.7504 3.88198  -3
   4   6  14 37.7504 3.88198  -2
   6   8  10 37.7504 3.88198   1
   4   6  14 37.0703 3.52234  -3
   2  12   2 37.0703 3.52234  -2
   6   8  10 37.0703 3.52234   1
   0   9  10 2.31502 1.86894   1
   1   9  10 36.8303 3.33682  -3
   0  10   8 36.8303 3.33682  -2
   1   9  10 36.8303 3.33682   1
   0  10   8 32.2370 3.36407  -3
   1   9  10 32.2370 3.36407  -2
   1   9  10 32.2370 3.36407   1
   2   9  10 6.25347 1.40800   1
   1  11   6 42.7906 3.46819  -3
   2   8  12 42.7906 3.46819  -2
   3   9  10 42.7906 3.46819   1
   2   8  12 33.0982 3.43363  -3
   1  11   6 33.0982 3.43363  -2
   3   9  10 33.0982 3.43363   1
   4   9  10 12.2051 1.55005   1
   3   7  14 35.9484 3.92455  -3
   2  12   4 35.9484 3.92455  -2
   5   9  10 35.9484 3.92455   1
   2  12   4 28.2003 4.39915  -3
   3   7  14 28.2003 4.39915  -2
   5   9  10 28.2003 4.39915   1
   0  10  10 18.0568 3.46218  -3
   0  10  10 18.0568 3.46218  -2
   0  10  10 18.0568 3.46218   1
   1  10  10 5.32186 1.70902   1
   1   9  12 30.2681 4.08648  -3
   1  11   8 30.2681 4.08648  -2
   2  10  10 30.2681 4.08648   1
   1  11   8 24.0956 3.87444  -3
   1   9  12 24.0956 3.87444  -2
   2  10  10 24.0956 3.87444   1
   0   0  11 5.60716 2.06408   1
   1   1  11 1.07818 0.92034   1
   0   2  11 0.07614 0.90611   1
   5   6   3 30.7309 1.39896  -3
   4   7   1 30.7309 1.39896  -2
   1   2  11 30.7309 1.39896   1
   4   7   1 28.4787 1.40576  -3
   5   6   3 28.4787 1.40576  -2
   1   2  11 28.4787 1.40576   1
   2   2  11 2.83825 1.00391   1
   1   3  11 3.45380 0.68533   1
   3   8   1 5.88189 1.59020  -3
   5   6   5 5.88189 1.59020  -2
   2   3  11 5.88189 1.59020   1
   5   6   5 8.02461 1.59195  -3
   3   8   1 8.02461 1.59195  -2
   2   3  11 8.02461 1.59195   1
   3   3  11 28.7992 1.61207   1
   0   4  11 16.2355 1.39024   1
   4   7   5 29.5934 1.71000  -3
   3   8   3 29.5934 1.71000  -2
   1   4  11 29.5934 1.71000   1
   3   8   3 30.3494 1.73250  -3
   4   7   5 30.3494 1.73250  -2
   1   4  11 30.3494 1.73250   1
   2   4  11 20.6977 1.02702   1
   2   9   1 10.3535 1.88270  -3
   5   6   7 10.3535 1.88270  -2
   3   4  11 10.3535 1.88270   1
   5   6   7 10.3177 1.67902  -3
   2   9   1 10.3177 1.67902  -2
   3   4  11 10.3177 1.67902   1
   4   4  11 18.4654 1.52703   1
   1   5  11 8.40217 0.87950   1
   2   9   3 15.6176 1.71378  -3
   4   7   7 15.6176 1.71378  -2
   2   5  11 15.6176 1.71378   1
   4   7   7 8.14575 1.80699  -3
   2   9   3 8.14575 1.80699  -2
   2   5  11 8.14575 1.80699   1
   3   5  11 15.6541 1.03634   1
   1  10   1 11.2629 2.25419  -3
   5   6   9 11.2629 2.25419  -2
   4   5  11 11.2629 2.25419   1
   5   6   9 11.4928 1.83169  -3
   1  10   1 11.4928 1.83169  -2
   4   5  11 11.4928 1.83169   1
   5   5  11 20.4724 1.65714   1
   0   6  11 49.4001 1.88446   1
   3   8   7 11.0268 2.02472  -3
   2   9   5 11.0268 2.02472  -2
   1   6  11 11.0268 2.02472   1
   2   9   5 8.40020 1.82873  -3
   3   8   7 8.40020 1.82873  -2
   1   6  11 8.40020 1.82873   1
   2   6  11 42.2689 1.31743   1
   1  10   3 16.9332 2.14184  -3
   4   7   9 16.9332 2.14184  -2
   3   6  11 16.9332 2.14184   1
   4   7   9 11.9691 2.08561  -3
   1  10   3 11.9691 2.08561  -2
   3   6  11 11.9691 2.08561   1
   4   6  11 15.9251 1.11363   1
   5   6  11 5.38908 2.93592  -2
   5   6  11 5.38908 2.93592   1
   5   6  11 -0.1636 2.49937  -3
   5   6  11 -0.1636 2.49937   1
   6   6  11 7.98986 1.92905   1
   1   7  11 2.91268 1.00300   1
   1  10   5 7.98105 2.24243  -3
   3   8   9 7.98105 2.24243  -2
   2   7  11 7.98105 2.24243   1
   3   8   9 15.7014 2.26646  -3
   1  10   5 15.7014 2.26646  -2
   2   7  11 15.7014 2.26646   1
   3   7  11 7.61500 1.17213   1
   4   7  11 20.6192 2.69458  -3
   4   7  11 20.6192 2.69458   1
   4   7  11 19.4879 3.04094  -2
   4   7  11 19.4879 3.04094   1
   5   7  11 0.72186 1.33625   1
   1  12   1 19.4528 4.22235  -3
   5   6  13 19.4528 4.22235  -2
   6   7  11 19.4528 4.22235   1
   5   6  13 24.2442 3.24607  -3
   1  12   1 24.2442 3.24607  -2
   6   7  11 24.2442 3.24607   1
   7   7  11 3.77763 2.63033   1
   0   8  11 58.9561 2.72155   1
   1  10   7 3.13307 2.75876  -3
   2   9   9 3.13307 2.75876  -2
   1   8  11 3.13307 2.75876   1
   2   9   9 6.96457 3.10320  -3
   1  10   7 6.96457 3.10320  -2
   1   8  11 6.96457 3.10320   1
   2   8  11 30.6286 1.59722   1
   3   8  11 6.97620 3.34241  -2
   3   8  11 6.97620 3.34241   1
   3   8  11 -1.6551 3.21356  -3
   3   8  11 -1.6551 3.21356   1
   4   8  11 15.6286 1.51905   1
   1  12   3 20.5619 3.44625  -3
   4   7  13 20.5619 3.44625  -2
   5   8  11 20.5619 3.44625   1
   4   7  13 15.1185 3.38321  -3
   1  12   3 15.1185 3.38321  -2
   5   8  11 15.1185 3.38321   1
   1   9  11 2.94191 1.35422   1
   2   9  11 6.63836 3.21516  -2
   2   9  11 6.63836 3.21516   1
   2   9  11 9.85574 3.39226  -3
   2   9  11 9.85574 3.39226   1
   3   9  11 4.75222 1.54101   1
   1  12   5 15.0617 3.78343  -3
   3   8  13 15.0617 3.78343  -2
   4   9  11 15.0617 3.78343   1
   3   8  13 17.1630 3.75870  -3
   1  12   5 17.1630 3.75870  -2
   4   9  11 17.1630 3.75870   1
   6   6   0 1302.37 32.4018  -3
   6   6   0 1302.37 32.4018  -2
   0   0  12 1302.37 32.4018   1
   0   1  12 -0.1042 1.05655   1
   5   7   0 435.059 8.60578  -3
   6   6   2 435.059 8.60578  -2
   1   1  12 435.059 8.60578   1
   6   6   2 456.855 8.11213  -3
   5   7   0 456.855 8.11213  -2
   1   1  12 456.855 8.11213   1
   5   7   2 111.692 2.46981  -3
   5   7   2 111.692 2.46981  -2
   0   2  12 111.692 2.46981   1
   1   2  12 28.0458 1.05769   1
   6   6   4 901.974 17.6260  -3
   4   8   0 901.974 17.6260  -2
   2   2  12 901.974 17.6260   1
   4   8   0 903.840 17.8142  -3
   6   6   4 903.840 17.8142  -2
   2   2  12 903.840 17.8142   1
   0   3  12 0.53734 1.09343   1
   4   8   2 484.359 7.20829  -3
   5   7   4 484.359 7.20829  -2
   1   3  12 484.359 7.20829   1
   5   7   4 457.579 6.21193  -3
   4   8   2 457.579 6.21193  -2
   1   3  12 457.579 6.21193   1
   2   3  12 12.9649 0.90330   1
   3   9   0 186.279 4.74896  -3
   6   6   6 186.279 4.74896  -2
   3   3  12 186.279 4.74896   1
   6   6   6 198.985 5.78511  -3
   3   9   0 198.985 5.78511  -2
   3   3  12 198.985 5.78511   1
   4   8   4 588.063 8.13445  -3
   4   8   4 588.063 8.13445  -2
   0   4  12 588.063 8.13445   1
   1   4  12 55.9742 1.31323   1
   3   9   2 110.095 2.77302  -3
   5   7   6 110.095 2.77302  -2
   2   4  12 110.095 2.77302   1
   5   7   6 115.571 3.02521  -3
   3   9   2 115.571 3.02521  -2
   2   4  12 115.571 3.02521   1
   3   4  12 20.8320 1.15134   1
   6   6   8 386.548 9.64277  -3
   2  10   0 386.548 9.64277  -2
   4   4  12 386.548 9.64277   1
   2  10   0 405.415 9.03481  -3
   6   6   8 405.415 9.03481  -2
   4   4  12 405.415 9.03481   1
   0   5  12 1.23549 1.35960   1
   3   9   4 211.647 4.17971  -3
   4   8   6 211.647 4.17971  -2
   1   5  12 211.647 4.17971   1
   4   8   6 218.870 4.19359  -3
   3   9   4 218.870 4.19359  -2
   1   5  12 218.870 4.19359   1
   2   5  12 1.01062 1.00379   1
   2  10   2 392.340 6.29779  -3
   5   7   8 392.340 6.29779  -2
   3   5  12 392.340 6.29779   1
   5   7   8 370.348 6.21183  -3
   2  10   2 370.348 6.21183  -2
   3   5  12 370.348 6.21183   1
   4   5  12 3.37952 1.11252   1
   1  11   0 69.8501 5.63640  -3
   6   6  10 69.8501 5.63640  -2
   5   5  12 69.8501 5.63640   1
   6   6  10 59.8259 4.33020  -3
   1  11   0 59.8259 4.33020  -2
   5   5  12 59.8259 4.33020   1
   3   9   6 123.256 3.26237  -3
   3   9   6 123.256 3.26237  -2
   0   6  12 123.256 3.26237   1
   1   6  12 49.7148 1.43896   1
   2  10   4 263.748 5.20617  -3
   4   8   8 263.748 5.20617  -2
   2   6  12 263.748 5.20617   1
   4   8   8 251.501 4.72151  -3
   2  10   4 251.501 4.72151  -2
   2   6  12 251.501 4.72151   1
   3   6  12 21.3043 1.28651   1
   5   7  10 81.9420 3.19494  -3
   1  11   2 81.9420 3.19494  -2
   4   6  12 81.9420 3.19494   1
   1  11   2 76.5661 3.77251  -3
   5   7  10 76.5661 3.77251  -2
   4   6  12 76.5661 3.77251   1
   5   6  12 4.76705 1.32138   1
   6   6  12 173.895 6.60119  -3
   0  12   0 173.895 6.60119  -2
   6   6  12 173.895 6.60119   1
   0  12   0 180.434 8.08482  -3
   6   6  12 180.434 8.08482  -2
   6   6  12 180.434 8.08482   1
   0   7  12 2.31090 1.68442   1
   3   9   8 188.223 4.25244  -3
   2  10   6 188.223 4.25244  -2
   1   7  12 188.223 4.25244   1
   2  10   6 210.133 5.29781  -3
   3   9   8 210.133 5.29781  -2
   1   7  12 210.133 5.29781   1
   2   7  12 7.02574 1.26812   1
   4   8  10 78.8692 3.24071  -3
   1  11   4 78.8692 3.24071  -2
   3   7  12 78.8692 3.24071   1
   1  11   4 76.9143 4.37221  -3
   4   8  10 76.9143 4.37221  -2
   3   7  12 76.9143 4.37221   1
   4   7  12 3.07241 1.49222   1
   5   7  12 186.883 5.52199  -3
   0  12   2 186.883 5.52199  -2
   5   7  12 186.883 5.52199   1
   0  12   2 182.818 5.12295  -3
   5   7  12 182.818 5.12295  -2
   5   7  12 182.818 5.12295   1
   6   7  12 2.18068 1.62297   1
   2  10   8 115.614 4.89523  -3
   2  10   8 115.614 4.89523  -2
   0   8  12 115.614 4.89523   1
   1   8  12 20.7165 1.53678   1
   3   9  10 82.9083 3.71780  -3
   1  11   6 82.9083 3.71780  -2
   2   8  12 82.9083 3.71780   1
   1  11   6 87.4467 3.59149  -3
   3   9  10 87.4467 3.59149  -2
   2   8  12 87.4467 3.59149   1
   3   8  12 14.3286 1.62569   1
   0  12   4 133.239 5.26687  -3
   4   8  12 133.239 5.26687  -2
   4   8  12 133.239 5.26687   1
   4   8  12 116.466 4.54177  -3
   0  12   4 116.466 4.54177  -2
   4   8  12 116.466 4.54177   1
   0   9  12 0.10423 2.04256   1
   1  11   8 79.0325 3.96159  -3
   2  10  10 79.0325 3.96159  -2
   1   9  12 79.0325 3.96159   1
   2  10  10 82.7016 6.47823  -3
   1  11   8 82.7016 6.47823  -2
   1   9  12 82.7016 6.47823   1
   2   9  12 0.99163 1.58673   1
   0   0  13 8.22632 2.69424   1
   1   1  13 0.33346 1.21240   1
   0   2  13 0.54356 1.10969   1
   5   8   1 19.7331 2.05406  -3
   6   7   3 19.7331 2.05406  -2
   1   2  13 19.7331 2.05406   1
   6   7   3 18.8027 1.59960  -3
   5   8   1 18.8027 1.59960  -2
   1   2  13 18.8027 1.59960   1
   2   2  13 1.88884 1.27215   1
   1   3  13 4.00745 0.87902   1
   4   9   1 18.0755 2.21211  -3
   6   7   5 18.0755 2.21211  -2
   2   3  13 18.0755 2.21211   1
   6   7   5 22.1260 1.87689  -3
   4   9   1 22.1260 1.87689  -2
   2   3  13 22.1260 1.87689   1
   3   3  13 17.5744 1.59926   1
   0   4  13 13.2925 1.44506   1
   4   9   3 25.6848 1.99187  -3
   5   8   5 25.6848 1.99187  -2
   1   4  13 25.6848 1.99187   1
   5   8   5 24.0233 1.85083  -3
   4   9   3 24.0233 1.85083  -2
   1   4  13 24.0233 1.85083   1
   2   4  13 8.04429 1.01322   1
   6   7   7 13.7573 2.15883  -3
   3  10   1 13.7573 2.15883  -2
   3   4  13 13.7573 2.15883   1
   3  10   1 19.1082 2.44448  -3
   6   7   7 19.1082 2.44448  -2
   3   4  13 19.1082 2.44448   1
   4   4  13 12.4468 1.78074   1
   1   5  13 2.22843 1.06792   1
   3  10   3 8.97236 2.63561  -3
   5   8   7 8.97236 2.63561  -2
   2   5  13 8.97236 2.63561   1
   5   8   7 8.07117 2.12504  -3
   3  10   3 8.07117 2.12504  -2
   2   5  13 8.07117 2.12504   1
   3   5  13 12.7045 1.33080   1
   2  11   1 5.96196 4.18310  -3
   6   7   9 5.96196 4.18310  -2
   4   5  13 5.96196 4.18310   1
   6   7   9 7.33062 3.43434  -3
   2  11   1 7.33062 3.43434  -2
   4   5  13 7.33062 3.43434   1
   5   5  13 16.9819 2.33337   1
   0   6  13 21.7072 1.92693   1
   3  10   5 13.3997 3.25558  -3
   4   9   7 13.3997 3.25558  -2
   1   6  13 13.3997 3.25558   1
   4   9   7 14.2956 2.16220  -3
   3  10   5 14.2956 2.16220  -2
   1   6  13 14.2956 2.16220   1
   2   6  13 23.0664 1.44418   1
   2  11   3 7.58923 4.15122  -3
   5   8   9 7.58923 4.15122  -2
   3   6  13 7.58923 4.15122   1
   5   8   9 -0.1359 2.83482  -3
   2  11   3 -0.1359 2.83482  -2
   3   6  13 -0.1359 2.83482   1
   4   6  13 9.94951 1.40429   1
   1  12   1 6.92995 3.72890  -3
   6   7  11 6.92995 3.72890  -2
   5   6  13 6.92995 3.72890   1
   6   7  11 7.78542 3.76257  -3
   1  12   1 7.78542 3.76257  -2
   5   6  13 7.78542 3.76257   1
   6   6  13 5.55726 2.51155   1
   1   7  13 2.01358 1.41602   1
   4   9   9 12.5462 2.87492  -3
   2  11   5 12.5462 2.87492  -2
   2   7  13 12.5462 2.87492   1
   2  11   5 10.4125 4.20837  -3
   4   9   9 10.4125 4.20837  -2
   2   7  13 10.4125 4.20837   1
   3   7  13 3.93265 1.49142   1
   5   8  11 18.7606 3.95962  -3
   1  12   3 18.7606 3.95962  -2
   4   7  13 18.7606 3.95962   1
   1  12   3 18.4295 4.28429  -3
   5   8  11 18.4295 4.28429  -2
   4   7  13 18.4295 4.28429   1
   5   7  13 2.79288 5.15269   1
   0   8  13 36.1366 2.65573   1
   3  10   9 3.83199 3.58526  -3
   2  11   7 3.83199 3.58526  -2
   1   8  13 3.83199 3.58526   1
   3  10   9 21.0713 12.9655  -3
   2  11   6 21.0713 12.9655  -2
   2  11   7 21.0713 12.9655  -2
   1   8  13 21.0713 12.9655   1
   2  11   7 0.66882 3.48092  -3
   3  10   9 0.66882 3.48092  -2
   1   8  13 0.66882 3.48092   1
   2   8  13 16.6586 1.87330   1
   4   9  11 12.8808 3.20844  -3
   1  12   5 12.8808 3.20844  -2
   3   8  13 12.8808 3.20844   1
   1  12   5 10.6564 4.36118  -3
   4   9  11 10.6564 4.36118  -2
   3   8  13 10.6564 4.36118   1
   7   7   0 91.0389 5.76852  -3
   7   7   0 91.0389 5.76852  -2
   0   0  14 91.0389 5.76852   1
   0   1  14 -0.3546 1.61594   1
   7   7   2 33.8918 2.33639  -3
   6   8   0 33.8918 2.33639  -2
   1   1  14 33.8918 2.33639   1
   6   8   0 33.3908 3.03846  -3
   7   7   2 33.3908 3.03846  -2
   1   1  14 33.3908 3.03846   1
   6   8   2 111.674 2.91856  -3
   6   8   2 111.674 2.91856  -2
   0   2  14 111.674 2.91856   1
   1   2  14 14.8658 1.12439   1
   7   7   4 64.3472 3.37838  -3
   5   9   0 64.3472 3.37838  -2
   2   2  14 64.3472 3.37838   1
   5   9   0 67.5861 3.84102  -3
   7   7   4 67.5861 3.84102  -2
   2   2  14 67.5861 3.84102   1
   0   3  14 0.33448 1.27717   1
   5   9   2 22.1722 2.43341  -3
   6   8   4 22.1722 2.43341  -2
   1   3  14 22.1722 2.43341   1
   6   8   4 25.4036 1.98234  -3
   5   9   2 25.4036 1.98234  -2
   1   3  14 25.4036 1.98234   1
   2   3  14 4.67511 1.11469   1
   7   7   6 52.4969 3.46488  -3
   4  10   0 52.4969 3.46488  -2
   3   3  14 52.4969 3.46488   1
   4  10   0 52.3200 3.84599  -3
   7   7   6 52.3200 3.84599  -2
   3   3  14 52.3200 3.84599   1
   5   9   4 49.8563 2.26563  -3
   5   9   4 49.8563 2.26563  -2
   0   4  14 49.8563 2.26563   1
   1   4  14 31.3773 1.43626   1
   6   8   6 40.6992 2.41982  -3
   4  10   2 40.6992 2.41982  -2
   2   4  14 40.6992 2.41982   1
   4  10   2 48.0787 2.41552  -3
   6   8   6 48.0787 2.41552  -2
   2   4  14 48.0787 2.41552   1
   3   4  14 13.6041 1.30222   1
   3  11   0 35.1305 6.05174  -3
   7   7   8 35.1305 6.05174  -2
   4   4  14 35.1305 6.05174   1
   7   7   8 31.1385 4.39417  -3
   3  11   0 31.1385 4.39417  -2
   4   4  14 31.1385 4.39417   1
   0   5  14 2.08288 1.54996   1
   4  10   4 23.9683 2.67380  -3
   5   9   6 23.9683 2.67380  -2
   1   5  14 23.9683 2.67380   1
   5   9   6 25.8758 2.61327  -3
   4  10   4 25.8758 2.61327  -2
   1   5  14 25.8758 2.61327   1
   2   5  14 2.30847 1.40202   1
   6   8   8 23.1491 3.00164  -3
   3  11   2 23.1491 3.00164  -2
   3   5  14 23.1491 3.00164   1
   3  11   2 26.9924 6.82766  -3
   6   8   8 26.9924 6.82766  -2
   3   5  14 26.9924 6.82766   1
   4   5  14 3.28884 1.42533   1
   7   7  10 43.8768 6.71084  -3
   2  12   0 43.8768 6.71084  -2
   5   5  14 43.8768 6.71084   1
   2  12   0 44.5538 5.33281  -3
   7   7  10 44.5538 5.33281  -2
   5   5  14 44.5538 5.33281   1
   4  10   6 8.96549 3.27095  -3
   4  10   6 8.96549 3.27095  -2
   0   6  14 8.96549 3.27095   1
   1   6  14 26.5109 1.70968   1
   5   9   8 34.3751 3.36374  -3
   3  11   4 34.3751 3.36374  -2
   2   6  14 34.3751 3.36374   1
   3  11   4 26.8647 4.35751  -3
   5   9   8 26.8647 4.35751  -2
   2   6  14 26.8647 4.35751   1
   3   6  14 10.6850 1.51985   1
   6   8  10 22.4744 4.52989  -3
   2  12   2 22.4744 4.52989  -2
   4   6  14 22.4744 4.52989   1
   2  12   2 22.0876 3.62429  -3
   6   8  10 22.0876 3.62429  -2
   4   6  14 22.0876 3.62429   1
   0   7  14 -0.1507 2.07439   1
   4  10   8 20.5528 3.24800  -3
   3  11   6 20.5528 3.24800  -2
   1   7  14 20.5528 3.24800   1
   3  11   6 6.66543 3.99253  -3
   4  10   8 6.66543 3.99253  -2
   1   7  14 6.66543 3.99253   1
   2   7  14 0.00075 1.61068   1
   2  12   4 21.3572 4.36039  -3
   5   9  10 21.3572 4.36039  -2
   3   7  14 21.3572 4.36039   1
   5   9  10 33.4466 3.89857  -3
   2  12   4 33.4466 3.89857  -2
   3   7  14 33.4466 3.89857   1
   2  12   4 39.6336 14.4943  -3
   5   9   9 39.6336 14.4943  -2
   5   9  10 39.6336 14.4943  -2
   3   7  14 39.6336 14.4943   1
   0   0  15 0.55321 3.49531   1
   1   1  15 2.73274 1.69999   1
   0   2  15 1.16156 1.73559   1
   6   9   1 12.8644 2.31505  -3
   7   8   3 12.8644 2.31505  -2
   1   2  15 12.8644 2.31505   1
   7   8   3 13.7556 1.81396  -3
   6   9   1 13.7556 1.81396  -2
   1   2  15 13.7556 1.81396   1
   2   2  15 -1.8428 1.66926   1
   1   3  15 1.78113 1.19766   1
   5  10   1 5.31997 2.95433  -3
   7   8   5 5.31997 2.95433  -2
   2   3  15 5.31997 2.95433   1
   7   8   5 7.87907 2.41474  -3
   5  10   1 7.87907 2.41474  -2
   2   3  15 7.87907 2.41474   1
   3   3  15 10.8544 1.92522   1
   0   4  15 2.52060 2.00809   1
   6   9   5 16.0066 2.95864  -3
   5  10   3 16.0066 2.95864  -2
   1   4  15 16.0066 2.95864   1
   5  10   3 18.5476 3.02713  -3
   6   9   5 18.5476 3.02713  -2
   1   4  15 18.5476 3.02713   1
   2   4  15 3.23111 1.33334   1
   4  11   1 8.57510 3.68145  -3
   7   8   7 8.57510 3.68145  -2
   3   4  15 8.57510 3.68145   1
   7   8   7 -0.0213 2.62725  -3
   4  11   1 -0.0213 2.62725  -2
   3   4  15 -0.0213 2.62725   1
   4   4  15 3.61948 2.01570   1
   1   5  15 1.06415 1.35455   1
   4  11   3 4.22785 3.06958  -3
   6   9   7 4.22785 3.06958  -2
   2   5  15 4.22785 3.06958   1
   6   9   7 6.56089 2.61432  -3
   4  11   3 6.56089 2.61432  -2
   2   5  15 6.56089 2.61432   1
   3   5  15 9.00041 1.46974   1
   7   8   9 5.46458 3.52886  -3
   3  12   1 5.46458 3.52886  -2
   4   5  15 5.46458 3.52886   1
   3  12   1 17.4391 4.65580  -3
   7   8   9 17.4391 4.65580  -2
   4   5  15 17.4391 4.65580   1
   0   6  15 15.5661 2.24092   1
   4  11   5 20.3990 3.23873  -3
   5  10   7 20.3990 3.23873  -2
   1   6  15 20.3990 3.23873   1
   5  10   7 7.73264 3.23634  -3
   4  11   5 7.73264 3.23634  -2
   1   6  15 7.73264 3.23634   1
   2   6  15 12.7621 1.62882   1
   3  12   3 7.10684 4.32651  -3
   6   9   9 7.10684 4.32651  -2
   3   6  15 7.10684 4.32651   1
   6   9   9 8.75620 4.51144  -3
   3  12   3 8.75620 4.51144  -2
   3   6  15 8.75620 4.51144   1
   8   8   0 450.428 22.3702  -3
   8   8   0 450.428 22.3702  -2
   0   0  16 450.428 22.3702   1
   0   1  16 0.00078 2.19759   1
   8   8   2 183.584 8.68474  -3
   7   9   0 183.584 8.68474  -2
   1   1  16 183.584 8.68474   1
   7   9   0 181.492 8.70831  -3
   8   8   2 181.492 8.70831  -2
   1   1  16 181.492 8.70831   1
   7   9   2 58.3140 4.20534  -3
   7   9   2 58.3140 4.20534  -2
   0   2  16 58.3140 4.20534   1
   1   2  16 7.01178 1.48415   1
   8   8   4 320.211 8.39453  -3
   6  10   0 320.211 8.39453  -2
   2   2  16 320.211 8.39453   1
   6  10   0 332.819 12.6329  -3
   8   8   4 332.819 12.6329  -2
   2   2  16 332.819 12.6329   1
   0   3  16 -0.4331 2.14773   1
   6  10   2 187.267 5.66688  -3
   7   9   4 187.267 5.66688  -2
   1   3  16 187.267 5.66688   1
   7   9   4 185.215 4.41334  -3
   6  10   2 185.215 4.41334  -2
   1   3  16 185.215 4.41334   1
   2   3  16 1.15737 1.45538   1
   5  11   0 96.7607 5.85009  -3
   8   8   6 96.7607 5.85009  -2
   3   3  16 96.7607 5.85009   1
   8   8   6 89.4202 5.17741  -3
   5  11   0 89.4202 5.17741  -2
   3   3  16 89.4202 5.17741   1
   6  10   4 234.087 5.35725  -3
   6  10   4 234.087 5.35725  -2
   0   4  16 234.087 5.35725   1
   1   4  16 17.1760 1.55745   1
   7   9   6 59.4833 3.06001  -3
   5  11   2 59.4833 3.06001  -2
   2   4  16 59.4833 3.06001   1
   5  11   2 64.3911 4.22465  -3
   7   9   6 64.3911 4.22465  -2
   2   4  16 64.3911 4.22465   1
   3   4  16 4.55772 1.58635   1
   0   5  16 1.69808 2.20794   1
   5  11   4 89.5454 5.12591  -3
   6  10   6 89.5454 5.12591  -2
   1   5  16 89.5454 5.12591   1
   6  10   6 98.8772 4.22889  -3
   5  11   4 98.8772 4.22889  -2
   1   5  16 98.8772 4.22889   1
   2   5  16 -0.9791 1.70792   1
   0   0  17 0.42589 4.46482   1
   1   1  17 1.93176 2.26496   1
   0   2  17 1.17474 2.21242   1
   8   9   3 -0.1715 3.67778  -3
   7  10   1 -0.1715 3.67778  -2
   1   2  17 -0.1715 3.67778   1
   7  10   1 2.34063 3.33798  -3
   8   9   3 2.34063 3.33798  -2
   1   2  17 2.34063 3.33798   1
   2   2  17 1.58539 2.46321   1
   1   3  17 -0.3793 1.62609   1
   6  11   1 -1.3670 3.16662  -3
   8   9   5 -1.3670 3.16662  -2
   2   3  17 -1.3670 3.16662   1
   8   9   5 16.5602 3.42672  -3
   6  11   1 16.5602 3.42672  -2
   2   3  17 16.5602 3.42672   1
   0   0   0    0.00    0.00   0
;
_shelx_hkl_checksum              79959

