data_image0
_chemical_formula_structural       C2H10I6N4Sn2
_chemical_formula_sum              "C2 H10 I6 N4 Sn2"
_cell_length_a       8.8821
_cell_length_b       8.8821
_cell_length_c       6.2698
_cell_angle_alpha    90
_cell_angle_beta     90
_cell_angle_gamma    90

_space_group_name_H-M_alt    "P 1"
_space_group_IT_number       1

loop_
  _space_group_symop_operation_xyz
  'x, y, z'

loop_
  _atom_site_type_symbol
  _atom_site_label
  _atom_site_symmetry_multiplicity
  _atom_site_fract_x
  _atom_site_fract_y
  _atom_site_fract_z
  _atom_site_occupancy
  C   C1        1.0  0.47649  0.02790  0.04368  1.0000
  C   C2        1.0  0.97649  0.49938  0.05890  1.0000
  H   H1        1.0  0.51061  0.99503  0.72190  1.0000
  H   H2        1.0  0.62218  0.84793  0.03124  1.0000
  H   H3        1.0  0.56690  0.90837  0.28589  1.0000
  H   H4        1.0  0.39059  0.14331  0.79344  1.0000
  H   H5        1.0  0.41536  0.10047  0.15718  1.0000
  H   H6        1.0  0.01061  0.63025  0.79180  1.0000
  H   H7        1.0  0.12218  0.37375  0.87593  1.0000
  H   H8        1.0  0.06690  0.29536  0.12056  1.0000
  H   H9        1.0  0.89059  0.70425  0.98739  1.0000
  H   H10       1.0  0.91536  0.49782  0.21202  1.0000
  I   I1        1.0  0.27770  0.22230  0.50000  1.0000
  I   I2        1.0  0.72230  0.77770  0.50000  1.0000
  I   I3        1.0  0.77770  0.27770  0.50000  1.0000
  I   I4        1.0  0.22230  0.72230  0.50000  1.0000
  I   I5        1.0  0.00000  0.00000  0.00000  1.0000
  I   I6        1.0  0.50000  0.50000  0.00000  1.0000
  N   N1        1.0  0.56251  0.92237  0.12303  1.0000
  N   N2        1.0  0.45724  0.05406  0.84027  1.0000
  N   N3        1.0  0.06251  0.38400  0.01497  1.0000
  N   N4        1.0  0.95724  0.61644  0.93541  1.0000
  Sn  Sn1       1.0  0.00000  0.00000  0.50000  1.0000
  Sn  Sn2       1.0  0.50000  0.50000  0.50000  1.0000
