data_image0
_chemical_formula_structural       CH5I3N2Sn
_chemical_formula_sum              "C1 H5 I3 N2 Sn1"
_cell_length_a       6.3074
_cell_length_b       6.3074
_cell_length_c       6.3074
_cell_angle_alpha    90
_cell_angle_beta     90
_cell_angle_gamma    90

_space_group_name_H-M_alt    "P 1"
_space_group_IT_number       1

loop_
  _space_group_symop_operation_xyz
  'x, y, z'

loop_
  _atom_site_type_symbol
  _atom_site_label
  _atom_site_symmetry_multiplicity
  _atom_site_fract_x
  _atom_site_fract_y
  _atom_site_fract_z
  _atom_site_occupancy
  C   C1        1.0  0.96690  0.04560  0.03674  1.0000
  H   H1        1.0  0.01494  0.94984  0.72805  1.0000
  H   H2        1.0  0.17205  0.79335  0.06417  1.0000
  H   H3        1.0  0.09421  0.91702  0.30087  1.0000
  H   H4        1.0  0.84593  0.16720  0.76563  1.0000
  H   H5        1.0  0.88081  0.16419  0.13218  1.0000
  I   I1        1.0  0.00000  0.50000  0.50000  1.0000
  I   I2        1.0  0.50000  0.00000  0.50000  1.0000
  I   I3        1.0  0.50000  0.50000  0.00000  1.0000
  N   N1        1.0  0.08803  0.91115  0.13789  1.0000
  N   N2        1.0  0.93979  0.05035  0.83126  1.0000
  Sn  Sn1       1.0  0.50000  0.50000  0.50000  1.0000
