####################################################################### 
# 
# This file contains crystal structure data downloaded from the 
# Cambridge Structural Database (CSD) hosted by the Cambridge 
# Crystallographic Data Centre (CCDC).
# 
# Full information about CCDC data access policies and citation 
# guidelines are available at http://www.ccdc.cam.ac.uk/access/V1 
# 
# Audit and citation data items may have been added by the CCDC. 
# Please retain this information to preserve the provenance of 
# this file and to allow appropriate attribution of the data. 
# 
#######################################################################

data_Pm-3m
_audit_block_doi                 10.25505/fiz.icsd.cc2c6f67
_database_code_depnum_ccdc_archive 'CCDC 2180918'
loop_
_citation_id
_citation_doi
_citation_year
1 10.1021/acsenergylett.0c01166 2020
_audit_update_record             
;
2022-06-15 deposited with the CCDC.	2022-09-06 downloaded from the CCDC.
;

_audit_creation_method           SHELXL-2018/3
_shelx_SHELXL_version_number     2018/3
_chemical_name_systematic        ?
_chemical_name_common            ?
_chemical_melting_point          ?
_chemical_formula_moiety         ?
_chemical_formula_sum            'I3 Mn Sn'
_chemical_formula_weight         554.33

loop_
_atom_type_symbol
_atom_type_description
_atom_type_scat_dispersion_real
_atom_type_scat_dispersion_imag
_atom_type_scat_source
I I -0.4742 1.8119 'International Tables Vol C Tables 4.2.6.8 and 6.1.1.4'
Sn Sn -0.6537 1.4246 'International Tables Vol C Tables 4.2.6.8 and 6.1.1.4'
Mn Mn 0.3368 0.7283 'International Tables Vol C Tables 4.2.6.8 and 6.1.1.4'

_space_group_crystal_system      cubic
_space_group_IT_number           221
_space_group_name_H-M_alt        'P m -3 m'
_space_group_name_Hall           '-P 4 2 3'

_shelx_space_group_comment       
;
The symmetry employed for this shelxl refinement is uniquely defined
by the following loop, which should always be used as a source of
symmetry information in preference to the above space-group names.
They are only intended as comments.
;

loop_
_space_group_symop_operation_xyz
'x, y, z'
'-x, -y, z'
'-x, y, -z'
'x, -y, -z'
'z, x, y'
'z, -x, -y'
'-z, -x, y'
'-z, x, -y'
'y, z, x'
'-y, z, -x'
'y, -z, -x'
'-y, -z, x'
'y, x, -z'
'-y, -x, -z'
'y, -x, z'
'-y, x, z'
'x, z, -y'
'-x, z, y'
'-x, -z, -y'
'x, -z, y'
'z, y, -x'
'z, -y, x'
'-z, y, x'
'-z, -y, -x'
'-x, -y, -z'
'x, y, -z'
'x, -y, z'
'-x, y, z'
'-z, -x, -y'
'-z, x, y'
'z, x, -y'
'z, -x, y'
'-y, -z, -x'
'y, -z, x'
'-y, z, x'
'y, z, -x'
'-y, -x, z'
'y, x, z'
'-y, x, -z'
'y, -x, -z'
'-x, -z, y'
'x, -z, -y'
'x, z, y'
'-x, z, -y'
'-z, -y, x'
'-z, y, -x'
'z, -y, -x'
'z, y, x'

_cell_length_a                   6.3074(15)
_cell_length_b                   6.3074(15)
_cell_length_c                   6.3074(15)
_cell_angle_alpha                90
_cell_angle_beta                 90
_cell_angle_gamma                90
_cell_volume                     250.93(18)
_cell_formula_units_Z            1
_cell_measurement_temperature    298(2)
_cell_measurement_reflns_used    1772
_cell_measurement_theta_min      6.460
_cell_measurement_theta_max      55.371

_exptl_crystal_description       cube
_exptl_crystal_colour            black
_exptl_crystal_density_meas      ?
_exptl_crystal_density_method    ?
_exptl_crystal_density_diffrn    3.668
_exptl_crystal_F_000             234
_exptl_transmission_factor_min   0.062
_exptl_transmission_factor_max   0.1101
_exptl_crystal_size_max          0.060
_exptl_crystal_size_mid          0.060
_exptl_crystal_size_min          0.060
_exptl_absorpt_coefficient_mu    12.880
_shelx_estimated_absorpt_T_min   0.512
_shelx_estimated_absorpt_T_max   0.512
_exptl_absorpt_correction_type   multi-scan
_exptl_absorpt_correction_T_min  ?
_exptl_absorpt_correction_T_max  ?
_exptl_absorpt_process_details   
'SAD2ABS-2014/4 - Bruker AXS area detector scaling and absorption correction'
_exptl_absorpt_special_details   ?
_diffrn_ambient_temperature      298(2)
_diffrn_radiation_wavelength     0.71073
_diffrn_radiation_type           MoK\a
_diffrn_source                   ?
_diffrn_measurement_device_type  'Bruker D8 Venture; Photon100 area detector'
_diffrn_measurement_method       ?
_diffrn_detector_area_resol_mean ?
_diffrn_reflns_number            4121
_diffrn_reflns_av_unetI/netI     0.0091
_diffrn_reflns_av_R_equivalents  0.0393
_diffrn_reflns_limit_h_min       -8
_diffrn_reflns_limit_h_max       8
_diffrn_reflns_limit_k_min       -8
_diffrn_reflns_limit_k_max       8
_diffrn_reflns_limit_l_min       -8
_diffrn_reflns_limit_l_max       8
_diffrn_reflns_theta_min         3.230
_diffrn_reflns_theta_max         28.124
_diffrn_reflns_theta_full        25.242
_diffrn_measured_fraction_theta_max 1.000
_diffrn_measured_fraction_theta_full 1.000
_diffrn_reflns_Laue_measured_fraction_max 1.000
_diffrn_reflns_Laue_measured_fraction_full 1.000
_diffrn_reflns_point_group_measured_fraction_max 1.000
_diffrn_reflns_point_group_measured_fraction_full 1.000
_reflns_number_total             91
_reflns_number_gt                84
_reflns_threshold_expression     'I > 2\s(I)'
_reflns_Friedel_coverage         0.000
_reflns_Friedel_fraction_max     .
_reflns_Friedel_fraction_full    .

_reflns_special_details          
;
 Reflections were merged by SHELXL according to the crystal
 class for the calculation of statistics and refinement.
 
 _reflns_Friedel_fraction is defined as the number of unique
 Friedel pairs measured divided by the number that would be
 possible theoretically, ignoring centric projections and
 systematic absences.
;

_computing_data_collection       ?
_computing_cell_refinement       ?
_computing_data_reduction        ?
_computing_structure_solution    ?
_computing_structure_refinement  'SHELXL-2018/3 (Sheldrick, 2018)'
_computing_molecular_graphics    ?
_computing_publication_material  ?
_refine_special_details          ?
_refine_ls_structure_factor_coef Fsqd
_refine_ls_matrix_type           full
_refine_ls_weighting_scheme      calc
_refine_ls_weighting_details     
'w=1/[\s^2^(Fo^2^)+(0.0225P)^2^+2.0104P] where P=(Fo^2^+2Fc^2^)/3'
_atom_sites_solution_primary     ?
_atom_sites_solution_secondary   ?
_atom_sites_solution_hydrogens   .
_refine_ls_hydrogen_treatment    undef
_refine_ls_extinction_method     none
_refine_ls_extinction_coef       .
_refine_ls_number_reflns         91
_refine_ls_number_parameters     5
_refine_ls_number_restraints     0
_refine_ls_R_factor_all          0.0434
_refine_ls_R_factor_gt           0.0394
_refine_ls_wR_factor_ref         0.0775
_refine_ls_wR_factor_gt          0.0758
_refine_ls_goodness_of_fit_ref   1.251
_refine_ls_restrained_S_all      1.251
_refine_ls_shift/su_max          0.000
_refine_ls_shift/su_mean         0.000

loop_
_atom_site_label
_atom_site_type_symbol
_atom_site_fract_x
_atom_site_fract_y
_atom_site_fract_z
_atom_site_U_iso_or_equiv
_atom_site_adp_type
_atom_site_occupancy
_atom_site_site_symmetry_order
_atom_site_calc_flag
_atom_site_refinement_flags_posn
_atom_site_refinement_flags_adp
_atom_site_refinement_flags_occupancy
_atom_site_disorder_assembly
_atom_site_disorder_group
Sn1 Sn 0.500000 0.500000 0.500000 0.0397(7) Uani 1 48 d S T P . .
I1 I 0.000000 0.500000 0.500000 0.0795(8) Uani 1 16 d S T P . .
Mn1 Mn 0.000000 0.000000 0.000000 0.63(4) Uani 1 48 d S T P . .

loop_
_atom_site_aniso_label
_atom_site_aniso_U_11
_atom_site_aniso_U_22
_atom_site_aniso_U_33
_atom_site_aniso_U_23
_atom_site_aniso_U_13
_atom_site_aniso_U_12
Sn1 0.0397(7) 0.0397(7) 0.0397(7) 0.000 0.000 0.000
I1 0.0335(9) 0.1025(12) 0.1025(12) 0.000 0.000 0.000
Mn1 0.63(4) 0.63(4) 0.63(4) 0.000 0.000 0.000

_geom_special_details            
;
 All esds (except the esd in the dihedral angle between two l.s. planes)
 are estimated using the full covariance matrix.  The cell esds are taken
 into account individually in the estimation of esds in distances, angles
 and torsion angles; correlations between esds in cell parameters are only
 used when they are defined by crystal symmetry.  An approximate (isotropic)
 treatment of cell esds is used for estimating esds involving l.s. planes.
;

loop_
_geom_bond_atom_site_label_1
_geom_bond_atom_site_label_2
_geom_bond_distance
_geom_bond_site_symmetry_2
_geom_bond_publ_flag
Sn1 I1 3.1537(8) 9_556 ?
Sn1 I1 3.1537(8) . ?
Sn1 I1 3.1537(8) 1_655 ?
Sn1 I1 3.1537(8) 5 ?
Sn1 I1 3.1537(8) 5_565 ?
Sn1 I1 3.1537(8) 9 ?

loop_
_geom_angle_atom_site_label_1
_geom_angle_atom_site_label_2
_geom_angle_atom_site_label_3
_geom_angle
_geom_angle_site_symmetry_1
_geom_angle_site_symmetry_3
_geom_angle_publ_flag
I1 Sn1 I1 90.0 9_556 . ?
I1 Sn1 I1 90.0 9_556 1_655 ?
I1 Sn1 I1 180.0 . 1_655 ?
I1 Sn1 I1 90.0 9_556 5 ?
I1 Sn1 I1 90.0 . 5 ?
I1 Sn1 I1 90.0 1_655 5 ?
I1 Sn1 I1 90.0 9_556 5_565 ?
I1 Sn1 I1 90.0 . 5_565 ?
I1 Sn1 I1 90.0 1_655 5_565 ?
I1 Sn1 I1 180.0 5 5_565 ?
I1 Sn1 I1 180.0 9_556 9 ?
I1 Sn1 I1 90.0 . 9 ?
I1 Sn1 I1 90.0 1_655 9 ?
I1 Sn1 I1 90.0 5 9 ?
I1 Sn1 I1 90.0 5_565 9 ?
Sn1 I1 Sn1 180.0 1_455 . ?

_refine_diff_density_max         1.108
_refine_diff_density_min         -1.059
_refine_diff_density_rms         0.133

_shelx_res_file                  
;
TITL Pm-3m in Pm-3m
    Pm-3m.res
    created by SHELXL-2018/3 at 10:25:41 on 25-Jun-2020
CELL 0.71073   6.30740   6.30740   6.30740  90.0000  90.0000  90.0000
ZERR 1.00000 0.00150 0.00150 0.00150 0.0000 0.0000 0.0000
LATT  1
SYMM -X, -Y, Z
SYMM -X, Y, -Z
SYMM X, -Y, -Z
SYMM Z, X, Y
SYMM Z, -X, -Y
SYMM -Z, -X, Y
SYMM -Z, X, -Y
SYMM Y, Z, X
SYMM -Y, Z, -X
SYMM Y, -Z, -X
SYMM -Y, -Z, X
SYMM Y, X, -Z
SYMM -Y, -X, -Z
SYMM Y, -X, Z
SYMM -Y, X, Z
SYMM X, Z, -Y
SYMM -X, Z, Y
SYMM -X, -Z, -Y
SYMM X, -Z, Y
SYMM Z, Y, -X
SYMM Z, -Y, X
SYMM -Z, Y, X
SYMM -Z, -Y, -X
SFAC I Sn Mn
UNIT 3 1 1
TEMP 25.450
SIZE 0.06 0.06 0.06

L.S. 10
BOND
FMAP 2
PLAN 20
SHEL 0.75 9999
ACTA

WGHT    0.022500    2.010400
FVAR       0.19232
SN1   2    0.500000    0.500000    0.500000    10.02083    0.03966    0.03966 =
         0.03966    0.00000    0.00000    0.00000
I1    1    0.000000    0.500000    0.500000    10.06250    0.03351    0.10254 =
         0.10254    0.00000    0.00000    0.00000
MN1   3    0.000000    0.000000    0.000000    10.02083    0.63351    0.63351 =
         0.63351    0.00000    0.00000    0.00000
HKLF 4




REM  Pm-3m in Pm-3m
REM wR2 = 0.077476, GooF = S = 1.25128, Restrained GooF = 1.25128 for all data
REM R1 = 0.039381 for 84 Fo > 4sig(Fo) and 0.043365 for all 91 data
REM 5 parameters refined using 0 restraints

END

WGHT      0.0137      2.0185

REM Highest difference peak  1.108,  deepest hole -1.059,  1-sigma level  0.133
Q1    1   0.1347  0.5000  0.5000  10.12500  0.05    0.62
Q2    1   0.5000  0.4038  0.4038  10.25000  0.05    0.60
Q3    1   0.0000  0.3223  0.5000  10.25000  0.05    0.57
Q4    1   0.0000  0.5000  0.3620  10.25000  0.05    0.54
Q5    1   0.2857  0.0000  0.0000  10.12500  0.05    0.46
Q6    1   0.0000  0.1218  0.5000  10.25000  0.05    0.40
Q7    1   0.0000  0.5000  0.1505  10.25000  0.05    0.40
Q8    1   0.2456  0.5000  0.3771  10.50000  0.05    0.37
Q9    1   0.1236  0.4310  0.5000  10.50000  0.05    0.27
Q10   1   0.5000  0.5000  0.3650  10.12500  0.05    0.25
Q11   1   0.0000  0.0933  0.1874  10.50000  0.05    0.21
Q12   1   0.5000  0.2657  0.3154  10.50000  0.05    0.20
Q13   1   0.1215  0.5000  0.2206  10.50000  0.05    0.19
Q14   1   0.2046  0.0617  0.0980  11.00000  0.05    0.19
Q15   1   0.0960  0.4268  0.2509  11.00000  0.05    0.18
Q16   1   0.2530  0.3288  0.4374  11.00000  0.05    0.14
Q17   1   0.0000  0.3540  0.2066  10.50000  0.05    0.14
Q18   1   0.0736  0.3573  0.2189  11.00000  0.05    0.13
Q19   1   0.0350  0.3243  0.1838  11.00000  0.05    0.12
Q20   1   0.0857  0.3012  0.1484  11.00000  0.05    0.12
;
_shelx_res_checksum              54990

_shelx_hkl_file                  
;
  -1   0   0  221.64    6.51
  -1   0   0  211.08    6.51
  -1   0   0  228.49    6.53
   0  -1   0  212.85    6.45
   0  -1   0  217.84    6.46
   0  -1   0  217.08    6.49
   0   0  -1  230.79    6.52
   0   0  -1  207.40    6.56
   0   0   1  219.13    6.48
   0   0   1  215.53    6.47
   0   1   0  196.19    6.48
   0   1   0  197.55    6.54
   0   1   0  217.66    6.47
   1   0   0  205.33    6.48
   1   0   0  216.24    6.48
  -1  -1   0    3.59    0.30
  -1  -1   0    3.54    0.30
  -1  -1   0    3.51    0.27
  -1   0  -1    3.45    0.29
  -1   0  -1    3.34    0.30
  -1   0   1    3.39    0.28
  -1   0   1    3.52    0.29
  -1   1   0    3.63    0.26
  -1   1   0    3.69    0.26
  -1   1   0    3.78    0.27
   0  -1  -1    3.52    0.33
   0  -1  -1    3.50    0.31
   0  -1   1    3.60    0.23
   0  -1   1    3.92    0.28
   0   1  -1    3.55    0.24
   0   1  -1    3.75    0.28
   0   1   1    4.51    0.34
   1  -1   0    3.81    0.26
   1  -1   0    3.58    0.26
   1  -1   0    3.80    0.26
   1   0  -1    3.46    0.29
   1   0  -1    3.48    0.30
   1   0  -1    3.82    0.30
   1   0   1    3.71    0.29
   1   0   1    3.80    0.31
   1   1   0    3.58    0.30
   1   1   0    3.35    0.28
  -1  -1  -1  312.26    9.37
  -1  -1  -1  308.31    9.37
  -1  -1   1  290.93    9.27
  -1  -1   1  307.43    9.32
  -1   1  -1  306.31    9.22
  -1   1  -1  315.33    9.25
  -1   1   1  297.47    9.33
  -1   1   1  310.30    9.34
  -1   1   1  315.34    9.29
   1  -1  -1  307.63    9.34
   1  -1  -1  303.09    9.34
   1  -1   1  306.84    9.24
   1  -1   1  310.38    9.24
   1  -1   1  313.49    9.31
   1  -1   1  326.65    9.25
   1   1  -1  304.88    9.27
   1   1  -1  300.01    9.27
   1   1  -1  295.49    9.33
   1   1   1  305.28    9.36
   1   1   1  318.86    9.38
  -2   0   0  974.44   29.19
  -2   0   0  974.01   29.42
   0  -2   0  940.29   28.89
   0  -2   0  922.10   28.93
   0  -2   0 1000.00   29.03
   0   0  -2  989.71   28.99
   0   0  -2  954.59   28.93
   0   0   2  954.29   28.83
   0   0   2  986.48   29.23
   0   2   0  927.42   28.93
   0   2   0  933.65   28.76
   2   0   0  973.15   29.35
   2   0   0  950.53   28.82
  -2   0  -1  189.29    5.82
  -2   0  -1  183.13    5.82
  -2   0   1  187.86    5.84
  -2   0   1  188.60    5.83
  -1  -2   0  187.73    5.80
  -1  -2   0  179.66    5.80
  -1   2   0  188.77    5.74
  -1   2   0  190.24    5.75
  -1   2   0  176.53    5.79
   0  -1  -2  200.52    5.88
   0  -1  -2  188.40    5.88
   0  -1   2  189.41    5.72
   0  -1   2  184.49    5.71
   0  -1   2  192.07    5.80
   0   1  -2  183.99    5.70
   0   1  -2  187.79    5.81
   0   1   2  184.10    5.87
   0   1   2  197.97    5.90
   1  -2   0  193.03    5.76
   1  -2   0  188.94    5.76
   1  -2   0  193.36    5.81
   1   2   0  185.67    5.79
   1   2   0  185.28    5.78
   2   0  -1  187.64    5.83
   2   0  -1  185.84    5.83
   2   0  -1  186.79    5.66
   2   0  -1  191.54    5.77
   2   0   1  180.03    5.81
   2   0   1  190.66    5.83
  -2  -1   0  190.02    5.83
  -2  -1   0  183.70    5.83
  -2  -1   0  193.34    5.76
  -2   1   0  191.86    5.80
  -2   1   0  190.25    5.78
  -1   0  -2  189.07    5.81
  -1   0  -2  193.17    5.84
  -1   0   2  179.02    5.81
  -1   0   2  187.80    5.81
   0  -2  -1  190.74    5.85
   0  -2  -1  175.91    5.85
   0  -2   1  186.98    5.76
   0  -2   1  195.97    5.82
   0   2  -1  181.37    5.77
   0   2   1  186.31    5.83
   0   2   1  195.48    5.86
   1   0  -2  187.25    5.80
   1   0  -2  182.83    5.80
   1   0  -2  193.27    5.86
   1   0   2  187.82    5.83
   1   0   2  190.62    5.83
   2  -1   0  191.13    5.80
   2  -1   0  182.60    5.79
   2  -1   0  190.59    5.77
   2   1   0  185.44    5.83
   2   1   0  188.16    5.83
  -2  -1  -1    3.94    0.46
  -2  -1  -1    3.49    0.42
  -2  -1   1    3.31    0.39
  -2  -1   1    3.24    0.34
  -2  -1   1    3.69    0.38
  -2   1  -1    3.61    0.35
  -2   1  -1    3.39    0.36
  -2   1   1    3.97    0.39
  -2   1   1    3.56    0.42
  -2   1   1    3.47    0.30
  -1  -2  -1    4.41    0.47
  -1  -2  -1    3.14    0.41
  -1  -2   1    3.56    0.33
  -1  -2   1    2.97    0.29
  -1  -2   1    3.29    0.30
  -1  -2   1    4.07    0.43
  -1  -1  -2    3.99    0.49
  -1  -1  -2    3.48    0.44
  -1  -1   2    3.53    0.32
  -1  -1   2    3.74    0.34
  -1  -1   2    3.23    0.23
  -1  -1   2    3.69    0.42
  -1   1  -2    3.53    0.31
  -1   1  -2    3.63    0.34
  -1   1   2    3.48    0.41
  -1   1   2    3.55    0.44
  -1   2  -1    3.33    0.34
  -1   2   1    3.76    0.39
  -1   2   1    3.19    0.42
  -1   2   1    3.47    0.34
   1  -2  -1    3.77    0.40
   1  -2  -1    3.42    0.39
   1  -2  -1    3.86    0.39
   1  -2   1    3.70    0.23
   1  -2   1    3.72    0.40
   1  -2   1    3.59    0.35
   1  -1  -2    3.64    0.45
   1  -1  -2    3.23    0.42
   1  -1   2    3.78    0.33
   1  -1   2    3.93    0.33
   1  -1   2    3.61    0.32
   1   1  -2    3.63    0.35
   1   1  -2    3.48    0.33
   1   1  -2    2.91    0.36
   1   1   2    3.53    0.43
   1   1   2    3.64    0.50
   1   2  -1    3.43    0.31
   1   2  -1    3.44    0.30
   1   2  -1    3.09    0.36
   1   2   1    2.80    0.43
   1   2   1    3.45    0.50
   2  -1  -1    3.99    0.42
   2  -1  -1    3.21    0.41
   2  -1  -1    3.68    0.32
   2  -1   1    3.87    0.35
   2  -1   1    3.36    0.35
   2  -1   1    3.85    0.38
   2   1  -1    3.58    0.42
   2   1  -1    3.44    0.38
   2   1  -1    3.44    0.35
   2   1   1    3.45    0.39
   2   1   1    3.83    0.46
  -2  -2   0  540.42   16.26
  -2  -2   0  556.32   16.24
  -2   0  -2  554.58   16.36
  -2   0  -2  528.86   16.26
  -2   0   2  539.49   16.26
  -2   2   0  545.74   16.20
  -2   2   0  531.26   16.27
  -2   2   0  524.57   16.24
   0  -2  -2  559.03   16.33
   0  -2  -2  507.26   16.50
   0  -2   2  541.96   16.18
   0  -2   2  534.35   16.25
   0   2  -2  532.68   16.26
   0   2   2  536.51   16.33
   2  -2   0  549.48   16.21
   2  -2   0  536.15   16.22
   2   0  -2  546.07   16.29
   2   0  -2  530.56   16.26
   2   0  -2  555.26   16.27
   2   0   2  542.90   16.27
   2   2   0  512.69   16.25
   2   2   0  520.01   16.34
  -2  -2  -1  151.18    4.71
  -2  -2  -1  141.94    4.74
  -2  -2   1  145.66    4.60
  -2  -2   1  151.34    4.67
  -2  -1  -2  150.82    4.71
  -2  -1  -2  144.92    4.70
  -2  -1   2  127.56    4.66
  -2  -1   2  144.04    4.60
  -2  -1   2  146.12    4.64
  -2   1  -2  138.80    4.60
  -2   1  -2  145.47    4.56
  -2   1  -2  150.43    4.46
  -2   1   2  142.31    4.79
  -2   1   2  148.66    4.50
  -2   2  -1  149.84    4.51
  -2   2  -1  145.89    4.51
  -2   2  -1  142.10    4.62
  -2   2   1  141.95    4.62
  -2   2   1  151.40    4.65
  -2   2   1  143.59    4.58
  -1  -2   2  143.43    4.49
  -1  -2   2  145.34    4.48
  -1  -2   2  148.42    4.65
  -1   2  -2  148.30    4.58
  -1   2   2  146.40    4.68
  -1   2   2  149.92    4.61
   1  -2  -2  151.87    4.72
   1  -2  -2  136.32    4.79
   1  -2   2  142.71    4.71
   1  -2   2  151.08    4.57
   1   2  -2  147.70    4.47
   1   2  -2  135.76    4.47
   1   2  -2  139.86    4.65
   1   2   2  145.83    4.72
   1   2   2  151.04    4.75
   2  -2  -1  149.69    4.65
   2  -2  -1  146.46    4.66
   2  -2  -1  153.81    4.61
   2  -2   1  142.99    4.52
   2  -2   1  144.49    4.52
   2  -2   1  152.63    4.64
   2  -2   1  152.48    4.50
   2  -1  -2  147.62    4.68
   2  -1  -2  150.51    4.77
   2  -1   2  138.22    4.56
   2  -1   2  148.66    4.58
   2   1  -2  147.71    4.60
   2   1  -2  143.48    4.60
   2   1   2  132.33    4.78
   2   1   2  146.82    4.71
   2   2  -1  144.40    4.59
   2   2  -1  142.70    4.59
   2   2  -1  152.79    4.48
   2   2   1  143.37    4.68
   2   2   1  147.92    4.70
  -2  -2  -2  365.12   10.83
  -2  -2  -2  351.41   10.83
  -2  -2   2  343.33   10.63
  -2  -2   2  361.61   10.74
  -2   2   2  354.99   10.77
  -2   2   2  319.82   10.75
   2  -2  -2  357.58   10.77
   2  -2  -2  349.53   10.77
   2  -2   2  314.52   10.62
   2  -2   2  364.93   10.58
   2  -2   2  357.80   10.72
   2  -2   2  356.25   10.56
   2   2  -2  354.10   10.63
   2   2  -2  345.23   10.63
   2   2  -2  337.75   10.74
   2   2   2  340.94   10.80
   2   2   2  362.62   10.84
  -3   0   0   81.43    2.73
  -3   0   0   81.02    2.72
   0  -3   0   84.60    2.66
   0  -3   0   82.06    2.66
   0  -3   0   84.41    2.70
   0   0  -3   81.67    2.70
   0   0  -3   82.36    2.70
   0   0  -3   68.97    2.85
   0   0   3   73.64    2.78
   0   0   3   86.20    2.74
   0   3   0   84.58    2.61
   0   3   0   80.98    2.63
   3   0   0   74.93    2.84
  -3   0  -1    0.24    0.35
  -3   0  -1   -0.11    0.30
  -3   0   1    0.79    0.43
  -1  -3   0    0.06    0.33
  -1  -3   0    0.26    0.28
  -1   3   0    0.15    0.26
  -1   3   0    0.02    0.34
  -1   3   0    0.17    0.27
   0  -1  -3    0.26    0.46
   0  -1  -3    0.29    0.37
   0  -1   3    0.57    0.30
   0  -1   3    0.45    0.30
   0   1  -3    0.07    0.32
   0   1  -3    0.37    0.28
   0   1   3    0.43    0.37
   0   1   3    0.15    0.42
   1  -3   0    0.14    0.30
   1  -3   0    0.36    0.33
   1  -3   0    0.06    0.25
   1   3   0    0.61    0.33
   1   3   0    0.42    0.36
   1   3   0   -0.10    0.25
   3   0  -1    0.57    0.41
   3   0  -1    0.42    0.21
   3   0  -1    0.17    0.25
   3   0   1   -0.02    0.26
   3   0   1    0.66    0.42
   3  -1   0    0.23    0.28
   3   1   0    0.52    0.42
   3   1   0    0.36    0.41
   0   3   1   -0.18    0.29
   0   3   1    0.23    0.47
   0   3   1   -0.18    0.24
   1   0  -3   -0.10    0.36
   1   0  -3    0.16    0.38
   1   0  -3    0.02    0.28
   1   0   3    0.02    0.25
   1   0   3   -0.24    0.37
   3  -1   0    0.34    0.36
   3  -1   0    0.05    0.23
  -1   0   3    0.04    0.33
   0  -3  -1    0.08    0.40
   0  -3  -1   -0.06    0.21
   0  -3   1    0.04    0.23
   0  -3   1    0.27    0.22
   0  -3   1    0.10    0.28
   0  -3   1    0.18    0.35
  -1   0  -3    0.23    0.40
  -1   0  -3    0.03    0.27
  -1   0   3    0.36    0.29
  -3   1   0    0.43    0.36
  -3   1   0    0.31    0.32
  -3  -1   0    0.14    0.29
  -3  -1   0    0.30    0.26
  -3  -1   0    0.15    0.39
  -1   3   1   86.91    2.81
  -1   3  -1   78.97    2.74
  -1   3   1   81.83    2.74
  -1   1  -3   83.88    2.72
  -1   1   3   81.41    2.82
   1  -1  -3   82.34    2.83
  -1  -1   3   81.96    2.71
  -1   1  -3   80.78    2.65
   3  -1   1   81.07    2.75
   3  -1   1   85.60    2.76
   3   1  -1   83.73    2.81
   3   1  -1   81.22    2.79
   3   1  -1   82.59    2.71
   3   1   1   78.81    2.80
   3   1   1   83.80    2.84
   1   1  -3   82.20    2.80
   1   1   3   79.91    2.83
   1   1   3   85.37    2.90
   1   3  -1   78.52    2.69
   1   3  -1   81.91    2.68
   1   3   1   79.03    2.79
   1   3   1   83.67    2.84
   3  -1  -1   84.22    2.82
   3  -1  -1   80.08    2.78
   3  -1  -1   84.87    2.65
   1  -1   3   83.36    2.71
   1   1  -3   83.92    2.70
   1   1  -3   81.85    2.68
  -3  -1  -1   83.95    2.84
  -3  -1  -1   76.63    2.79
  -3  -1  -1   83.28    2.61
  -3  -1   1   77.22    2.77
  -3  -1   1   85.26    2.72
  -3   1  -1   85.01    2.75
  -3   1  -1   82.23    2.75
  -3   1   1   69.08    2.86
  -3   1   1   82.26    2.80
  -3   1   1   83.70    2.65
  -1  -3  -1   83.96    2.84
  -1  -3  -1   79.01    2.81
  -1  -3   1   77.87    2.64
  -1  -3   1   73.71    2.72
  -1  -3   1   84.70    2.81
  -1  -1  -3   84.57    2.85
  -1  -1  -3   80.97    2.86
  -1  -1   3   77.75    2.69
   1  -3   1   85.33    2.87
   1  -1  -3   83.84    2.84
   1  -3   1   85.91    2.59
   1  -3   1   82.01    2.57
   1  -3   1   83.52    2.76
   1  -3  -1   79.73    2.76
   1  -3  -1   83.88    2.79
  -1   3   1   83.69    2.77
   3   0   2   70.45    2.40
   3   0   2   63.70    2.33
   3   0  -2   67.37    2.38
   3   0  -2   60.78    2.37
   3   0  -2   66.22    2.29
   2   3   0   66.21    2.33
   2   3   0   64.54    2.31
   2  -3   0   67.56    2.34
  -3   0  -2   67.30    2.36
  -3   0  -2   67.94    2.36
  -3   0   2   65.76    2.36
  -3   0   2   68.46    2.38
  -2  -3   0   68.90    2.37
  -2  -3   0   64.34    2.33
  -2  -3   0   70.15    2.39
  -2   3   0   67.18    2.23
  -2   3   0   67.30    2.26
  -2   3   0   64.27    2.30
   0  -2  -3   67.97    2.46
   0  -2  -3   65.18    2.42
   0  -2   3   65.26    2.13
   0  -2   3   66.27    2.14
   0  -2   3   60.40    2.30
   0  -2   3   68.25    2.34
   0   2  -3   62.95    2.32
   0   2   3   66.00    2.42
   2  -3   0   68.49    2.27
   2  -3   0   67.86    2.26
   0   3  -2   64.60    2.33
   0   3   2   67.50    2.43
   0   3   2   66.81    2.45
   2   0  -3   65.94    2.36
   2   0  -3   65.72    2.33
   2   0  -3   66.80    2.38
   2   0   3   66.02    2.35
   2   0   3   70.10    2.39
   3  -2   0   65.82    2.31
   3  -2   0   65.86    2.29
   3  -2   0   69.58    2.31
   3   2   0   64.06    2.37
   3   2   0   67.29    2.37
   0  -3   2   67.02    2.27
   0  -3   2   67.83    2.36
   0   3  -2   63.09    2.26
  -3  -2   0   65.01    2.36
  -3  -2   0   60.48    2.38
  -3   2   0   68.80    2.31
  -3   2   0   69.26    2.30
  -2   0  -3   68.30    2.35
  -2   0  -3   65.48    2.36
  -2   0   3   61.57    2.32
  -2   0   3   61.74    2.44
   0  -3  -2   69.19    2.59
   0  -3  -2   66.91    2.43
  -3  -2   0   67.00    2.40
   1  -2   3    0.58    0.26
   1  -2   3    1.02    0.30
   1  -2   3    1.09    0.40
   1  -2   3    1.48    0.38
   1   2  -3    1.09    0.39
  -2  -1   3    0.73    0.32
  -3  -2   1    1.20    0.36
  -3  -2   1    1.07    0.40
  -3   1   2    1.64    0.53
  -1  -3   2    0.82    0.28
  -1  -3   2    0.56    0.32
   2  -3   1    0.85    0.31
   2  -3   1    0.83    0.26
   2  -3   1    0.76    0.47
   2  -3   1    0.68    0.35
   2   3  -1    1.01    0.38
   2   3  -1    0.66    0.25
   1  -3  -2    1.68    0.45
  -2   1  -3    0.46    0.38
  -3   1   2    0.92    0.25
  -2  -3  -1    1.68    0.48
   3  -1   2    0.94    0.33
   3  -1   2    0.93    0.44
   3   1  -2    0.61    0.39
   3   1  -2    0.70    0.34
   3   1  -2    0.61    0.31
  -3  -1  -2    1.73    0.44
  -1  -3   2    1.10    0.51
   1   2  -3    0.55    0.28
  -1  -2  -3    0.17    0.56
  -1  -2  -3    0.38    0.27
  -1   3  -2    0.13    0.27
  -3   2  -1    1.49    0.41
  -3   2  -1    1.44    0.41
   3   2   1    1.18    0.44
   3   2   1    0.73    0.53
  -1   2   3    0.52    0.36
  -1   2   3    0.89    0.59
  -2   1  -3    0.98    0.31
  -2   3   1    0.84    0.52
  -2   3   1    0.77    0.33
  -3  -1  -2    1.08    0.55
   3  -2  -1    0.86    0.56
   1   3   2    0.91    0.61
   2  -1  -3    1.40    0.61
   2  -1  -3    0.39    0.37
  -3   1   2    0.97    0.39
   1   3   2    0.78    0.42
  -2   1  -3    0.58    0.40
   3  -2  -1    1.07    0.38
   3  -2  -1    0.74    0.34
   2   1   3    0.57    0.41
   2   1   3    1.64    0.59
  -3  -2   1    0.85    0.46
   1  -3  -2    0.84    0.52
  -2  -1   3    1.16    0.44
   3  -1  -2    0.17    0.47
   3   1   2    0.33    0.35
   1   2   3    0.98    0.39
   1   2   3    0.64    0.64
   2  -3  -1    1.09    0.44
  -1  -2   3    1.05    0.30
   3  -1  -2    1.29    0.41
  -3   2   1    0.80    0.48
  -3   2   1    0.54    0.26
  -2  -1  -3    1.16    0.52
  -2  -1  -3    1.20    0.58
   1  -2  -3    0.38    0.38
  -3  -2  -1    0.90    0.43
  -3  -2  -1    0.52    0.38
   2   3   1    0.80    0.59
  -2  -3   1    1.42    0.42
  -2   1   3    0.63    0.35
  -2   1   3    0.93    0.51
  -2   1   3    0.90    0.28
  -1  -3  -2    0.81    0.61
  -1  -3  -2    0.85    0.37
   2  -3  -1    0.80    0.36
   2  -3  -1    1.23    0.48
   3   1   2    0.56    0.53
  -1  -2   3    0.69    0.24
  -1   3   2    1.04    0.42
  -1   3   2   -0.05    0.55
  -1   3   2    0.86    0.31
  -3  -2  -1    0.77    0.50
   2   3   1    0.57    0.40
   1  -3   2    0.55    0.43
   1  -3   2    1.15    0.41
   1   3  -2    0.65    0.25
   1   3  -2    0.92    0.32
  -1  -2   3    1.04    0.34
  -3  -1   2    1.26    0.48
  -3   1  -2    1.17    0.47
  -3   1  -2    1.03    0.40
   2  -1   3    0.96    0.32
   2  -1   3    1.14    0.40
   2   1  -3    0.90    0.46
   2   1  -3    0.45    0.37
   2   1  -3    0.74    0.33
  -2  -3   1    0.59    0.31
  -2  -3   1    1.25    0.47
  -2   3  -1    0.72    0.28
  -3   2   1    1.12    0.42
   1  -2  -3    0.50    0.62
   3  -2   1    0.58    0.38
   3  -2   1    0.48    0.26
   3  -2   1    0.78    0.41
   3   2  -1    0.84    0.44
   3   2  -1    0.91    0.39
   3   2  -1    0.97    0.30
  -1  -2   3    1.23    0.51
  -1   2  -3    1.22    0.35
  -3  -2  -2   53.50    2.11
  -3  -2  -2   49.99    2.02
  -3  -2   2   52.00    1.94
  -3  -2   2   49.04    1.90
  -3  -2   2   53.28    1.99
  -3   2  -2   53.67    1.82
  -3   2  -2   51.13    1.82
  -3   2   2   50.53    1.96
  -3   2   2   52.33    2.02
  -3   2   2   50.48    1.80
  -2  -3  -2   52.92    2.11
  -2  -3  -2   49.84    2.05
  -2  -3   2   52.37    1.84
  -2  -3   2   48.34    1.80
  -2  -3   2   52.26    2.01
  -2  -2  -3   52.61    2.11
  -2  -2  -3   51.02    2.05
  -2  -2   3   48.39    1.84
  -2  -2   3   50.44    1.85
  -2  -2   3   51.05    2.01
  -2   2  -3   53.24    1.81
  -2   2   3   51.34    2.00
  -2   2   3   51.07    2.05
  -2   2   3   53.25    1.83
  -2   3   2   48.03    1.94
  -2   3   2   50.44    2.00
  -2   3   2   50.95    1.89
   2  -3  -2   54.13    2.05
   2  -3  -2   50.82    1.98
   2  -3   2   50.99    1.70
   2  -3   2   44.83    1.72
   2  -3   2   54.27    1.98
   2  -2  -3   54.81    2.08
   2  -2  -3   49.89    2.01
   2  -2   3   50.80    1.77
   2  -2   3   52.30    1.78
   2  -2   3   53.59    1.97
   2  -2   3   51.53    1.80
   2   2  -3   52.75    1.86
   2   2  -3   51.41    1.84
   2   2  -3   47.63    1.95
   2   2   3   50.94    2.05
   2   2   3   53.12    2.15
   2   3  -2   52.68    1.82
   2   3  -2   51.33    1.81
   2   3  -2   50.54    1.73
   2   3  -2   51.00    1.97
   2   3   2   48.82    2.00
   2   3   2   52.05    2.14
   3  -2  -2   52.01    2.03
   3  -2  -2   51.70    2.00
   3  -2  -2   53.47    1.86
   3  -2   2   51.22    1.83
   3  -2   2   52.89    1.97
   3   2  -2   51.56    1.94
   3   2  -2   52.47    1.92
   3   2  -2   50.84    1.94
   3   2   2   49.80    2.01
   3   2   2   55.14    2.14
  -3  -3   0    0.22    0.53
  -3  -3   0    0.23    0.38
  -3  -3   0    0.96    0.49
  -3   0  -3    0.69    0.59
  -3   0  -3    0.45    0.42
  -3   0   3    0.84    0.40
  -3   0   3    0.58    0.55
  -3   3   0    0.35    0.49
  -3   3   0   -0.20    0.30
   0  -3  -3    0.26    0.62
   0  -3  -3    0.55    0.44
   0  -3   3   -0.22    0.41
   0  -3   3   -0.02    0.44
   0   3  -3    0.13    0.34
   0   3   3    0.42    0.39
   0   3   3    1.33    0.72
   3  -3   0    0.56    0.45
   3  -3   0    0.58    0.37
   3  -3   0    0.16    0.42
   3   0  -3    0.50    0.51
   3   0  -3    0.33    0.40
   3   0  -3    0.50    0.43
   3   0   3   -0.04    0.41
   3   3   0    0.44    0.53
   3   3   0    0.84    0.54
  -3  -3  -1   28.02    1.43
  -3  -3  -1   26.24    1.29
  -3  -3  -1   27.99    1.31
  -3  -3   1   25.97    1.26
  -3  -3   1   24.72    1.19
  -3  -3   1   26.81    1.31
  -3  -1  -3   25.72    1.40
  -3  -1  -3   26.63    1.28
  -3  -1   3   26.35    1.23
  -3  -1   3   25.66    1.26
  -3   1  -3   26.33    1.21
  -3   1  -3   26.02    1.20
  -3   1   3   26.50    1.26
  -3   1   3   26.35    1.34
  -3   1   3   27.22    1.01
  -3   3  -1   26.58    1.15
  -3   3  -1   25.84    1.09
  -3   3   1   26.21    1.19
  -3   3   1   25.62    1.27
  -3   3   1   25.26    1.14
  -1  -3  -3   24.56    1.46
  -1  -3  -3   23.78    1.30
  -1  -3   3   25.82    1.00
  -1  -3   3   24.89    1.23
  -1  -3   3   25.86    1.32
  -1   3  -3   28.00    1.18
  -1   3   3   25.51    1.27
  -1   3   3   27.55    1.44
  -1   3   3   26.90    1.21
   1  -3  -3   27.02    1.41
   1  -3  -3   25.26    1.32
   1  -3   3   26.67    1.24
   1  -3   3   25.55    1.20
   1   3  -3   25.77    1.24
   1   3   3   25.36    1.31
   1   3   3   27.72    1.51
   3  -3  -1   27.11    1.28
   3  -3  -1   24.95    1.21
   3  -3  -1   26.55    1.23
   3  -3   1   27.78    1.13
   3  -3   1   25.68    1.08
   3  -3   1   26.86    1.28
   3  -1  -3   26.37    1.38
   3  -1  -3   25.72    1.28
   3  -1   3   23.75    1.13
   3  -1   3   28.60    1.25
   3   1  -3   27.29    1.30
   3   1  -3   25.53    1.19
   3   1  -3   25.80    1.21
   3   1   3   26.30    1.27
   3   1   3   25.81    1.39
   3   3  -1   25.45    1.21
   3   3  -1   27.01    1.04
   3   3   1   25.76    1.25
   3   3   1   26.18    1.38
  -3  -3  -2    0.68    0.76
  -3  -3  -2    0.21    0.49
  -3  -3   2    0.23    0.53
  -3  -3   2    0.75    0.40
  -3  -3   2    0.67    0.56
  -3  -2  -3    0.37    0.83
  -3  -2  -3    1.01    0.60
  -3  -2   3    0.14    0.52
  -3   2  -3    0.44    0.45
  -3   2  -3    0.78    0.45
  -3   2   3    0.69    0.45
  -3   2   3    0.92    0.65
  -3   2   3    0.23    0.31
  -3   3  -2    0.33    0.44
  -3   3   2    0.49    0.43
  -3   3   2    0.70    0.59
  -3   3   2    0.26    0.30
  -2  -3  -3    0.06    0.67
  -2  -3  -3    1.19    0.55
  -2  -3   3    0.77    0.44
  -2  -3   3   -0.04    0.28
  -2  -3   3    0.58    0.59
  -2   3   3    0.61    0.45
  -2   3   3    2.41    0.64
  -2   3   3    0.48    0.31
   2  -3  -3   -0.36    0.57
   2  -3  -3   -0.03    0.50
   2  -3   3    0.55    0.60
   2  -3   3    1.01    0.47
   2   3  -3    0.13    0.46
   2   3  -3    0.59    0.43
   2   3  -3   -0.02    0.38
   2   3   3    0.90    0.51
   2   3   3    0.53    0.82
   3  -3  -2    1.01    0.64
   3  -3  -2    0.82    0.47
   3  -3   2    0.47    0.36
   3  -3   2    0.51    0.32
   3  -3   2    0.48    0.58
   3  -3   2    0.66    0.36
   3  -2  -3    0.16    0.68
   3  -2  -3    0.46    0.51
   3  -2   3    0.28    0.33
   3  -2   3    0.34    0.44
   3  -2   3    2.54    0.74
   3   2  -3    1.03    0.64
   3   2  -3   -0.20    0.44
   3   2  -3    0.03    0.37
   3   2   3    0.14    0.51
   3   2   3   -0.46    0.72
   3   3  -2    0.05    0.55
   3   3  -2   -0.19    0.44
   3   3  -2    0.37    0.43
   3   3   2    0.66    0.54
   3   3   2   -0.68    0.78
  -3  -3  -3    9.67    1.27
  -3  -3  -3    7.60    0.91
  -3  -3   3    9.05    0.85
  -3  -3   3    8.28    0.70
  -3  -3   3    8.89    1.08
  -3   3   3    7.69    0.89
  -3   3   3    9.34    1.11
  -3   3   3    7.02    0.69
   3  -3  -3    9.48    1.23
   3  -3  -3    8.07    0.90
   3  -3   3    7.89    0.59
   3  -3   3    7.33    0.91
   3   3  -3    7.84    0.91
   3   3  -3    7.45    0.80
   3   3  -3    8.84    0.80
   3   3   3    7.84    0.91
   3   3   3    9.80    1.26
  -4   0   0  253.40    8.09
  -4   0   0  255.49    8.10
   0  -4   0  270.34    8.01
   0  -4   0  237.68    7.98
   0   0  -4  256.04    8.04
   0   0  -4  254.20    8.04
   0   0  -4  267.09    8.12
   0   0   4  253.01    8.07
   0   0   4  268.78    8.10
   0   4   0  256.31    7.91
   0   4   0  256.36    7.95
   0   4   0  257.86    8.05
   4   0   0  269.57    8.13
   4   0   0  256.89    8.11
  -4   0  -1   82.09    2.92
  -4   0  -1   85.06    2.92
  -4   0   1   82.44    2.93
  -4   0   1   80.12    2.91
  -1  -4   0   82.91    2.85
  -1  -4   0   80.53    2.84
  -1   4   0   84.28    2.72
  -1   4   0   82.87    2.78
  -1   4   0   83.57    2.89
   0  -1  -4   79.88    2.94
   0  -1   4   82.00    2.80
   0  -1   4   83.63    2.82
   0   1  -4   80.97    2.78
   0   1  -4   84.06    2.77
   0   1  -4   81.15    2.89
   0   1   4   80.30    2.94
   0   1   4   83.55    2.99
   1  -4   0   84.99    2.81
   1  -4   0   80.94    2.76
   1   4   0   81.21    2.80
   1   4   0   80.05    2.80
   4   0  -1   84.36    2.96
   4   0  -1   83.22    2.92
   4   0  -1   86.55    2.68
   4   0  -1   84.40    2.72
   4   0   1   83.57    2.93
   4   0   1   87.02    2.97
   0  -4   1   84.23    2.70
   0  -4   1   82.85    2.85
   0  -4   1   81.29    2.91
   0   4  -1   77.70    2.82
   0   4   1   82.93    2.84
   0   4   1   83.23    2.92
   0   4   1   83.41    2.89
   1   0  -4   83.98    2.91
   1   0  -4   81.45    2.87
   1   0  -4   83.98    2.96
   1   0   4   81.87    2.91
   1   0   4   86.47    2.94
   4  -1   0   84.61    2.93
   4  -1   0   82.11    2.89
   4  -1   0   83.76    2.79
   4   1   0   81.97    2.92
  -4  -1   0   84.06    2.96
  -4  -1   0   82.00    2.92
  -4  -1   0   84.02    2.71
  -4   1   0   80.98    2.89
  -4   1   0   85.89    2.90
  -1   0  -4   83.93    2.90
  -1   0  -4   80.08    2.88
  -1   0  -4   86.35    2.87
  -1   0   4   78.46    2.88
  -1   0   4   81.64    2.90
   0  -4  -1   89.02    2.94
   0  -4  -1   84.95    2.91
   0  -4   1   84.72    2.71
  -1  -1  -4   11.77    0.98
  -1  -1   4   10.93    0.72
  -1  -1   4   11.16    0.78
  -1   1  -4   10.83    0.80
  -1   1  -4   11.85    0.76
  -1   1  -4   11.16    0.73
  -1   1   4   10.96    0.83
  -1   1   4   11.18    0.95
  -1   4  -1   10.99    0.73
  -1   4   1   11.49    0.75
  -1   4   1   12.19    0.93
  -1   4   1   11.12    0.77
   1  -4  -1   13.05    0.89
   1  -4  -1   12.17    0.79
   1  -4   1   11.28    0.64
   1  -4   1   11.83    0.56
  -4  -1  -1   11.85    0.95
  -4  -1  -1   11.58    0.82
  -4  -1   1   11.25    0.89
  -4  -1   1   11.62    0.80
  -4  -1   1   11.81    0.77
  -4   1  -1   12.78    0.83
  -4   1  -1   11.57    0.80
  -4   1   1   12.27    0.88
  -1  -4  -1   12.58    0.93
  -1  -4  -1   11.65    0.80
  -1  -4   1   11.46    0.71
   4  -1   1   13.04    0.89
   4  -1   1   11.04    0.76
   4  -1   1   11.68    0.81
   4   1  -1   12.92    0.96
   4   1  -1   12.43    0.83
   4   1  -1   11.31    0.63
   4   1   1   11.52    0.81
   4   1   1   11.34    0.98
   1  -4   1   12.47    0.87
   1  -1  -4   10.59    0.94
   1  -1  -4   10.85    0.81
  -1  -4   1   11.71    0.66
  -1  -4   1   11.44    0.92
   1  -1   4   12.08    0.72
   1  -1   4   11.53    0.80
   1   1  -4   12.40    0.84
   1   1  -4   12.02    0.76
   1   1  -4   11.40    0.81
   1   1   4   10.67    0.82
   1   1   4   11.55    1.00
   1   4  -1   10.86    0.66
   1   4  -1   10.57    0.70
   1   4   1   11.48    0.82
   1   4   1   12.56    1.02
   1   4   1   10.43    0.74
   4  -1  -1   11.31    0.87
   4  -1  -1   11.94    0.80
   4  -1  -1   10.89    0.75
   4  -1  -1   10.95    0.62
   2  -4   0  170.70    5.43
   2  -4   0  162.11    5.53
   2   4   0  177.85    5.53
   2   4   0  166.64    5.48
   2   4   0  171.91    5.47
   4   0  -2  170.97    5.61
  -4   2   0  173.83    5.54
  -4   2   0  174.99    5.88
  -2   0  -4  172.11    5.54
  -2   0  -4  169.03    5.57
  -4  -2   0  175.43    5.63
   4   0   2  182.03    5.63
  -4   0  -2  171.00    5.57
  -2  -4   0  174.96    5.56
  -2  -4   0  167.76    5.54
  -2  -4   0  171.83    5.61
  -2   4   0  177.92    5.39
  -2   4   0  184.38    5.47
  -2   4   0  169.21    5.54
   0  -2  -4  165.48    5.65
   0  -2  -4  172.22    5.68
   0  -2   4  169.57    5.36
   0  -2   4  171.82    5.37
   0  -2   4  173.92    5.43
   0  -2   4  172.47    5.55
   0   2  -4  166.70    5.55
   0   2   4  164.71    5.65
   0   2   4  175.40    5.70
   2  -4   0  174.74    5.45
   4   0  -2  164.08    5.57
   4   0  -2  174.12    5.46
   4   0   2  171.43    5.59
  -4   0  -2  173.03    5.58
   2   0   4  170.34    5.59
   2   0   4  176.76    5.62
   4  -2   0  176.82    5.55
   4  -2   0  169.04    5.53
   4  -2   0  179.92    5.50
   4   2   0  167.81    5.58
   4   2   0  169.12    5.59
   0   4   2  172.06    5.56
  -4  -2   0  170.37    5.61
  -4  -2   0  171.71    5.43
   0  -4   2  175.09    5.58
   0   4  -2  167.30    5.47
   0   4   2  150.68    5.69
   0   4   2  169.77    5.64
   0  -4  -2  173.07    5.65
   2   0  -4  170.49    5.57
   2   0  -4  173.62    5.63
   0  -4  -2  178.06    5.66
  -2   0   4  173.26    5.58
   0  -4   2  175.71    5.50
  -2   0   4  163.12    5.55
  -2   0  -4  175.64    5.43
   1  -4  -2   62.04    2.40
   1  -4  -2   62.25    2.36
   1  -2   4   61.55    2.10
   1  -2   4   62.65    2.13
   1  -2   4   61.72    2.26
  -1   2   4   63.09    2.47
  -1   2   4   61.40    2.38
  -1  -4   2   63.53    2.40
  -1  -4   2   62.51    2.19
   4   1  -2   60.18    2.21
  -1   4  -2   60.95    2.24
  -2   1  -4   59.38    2.14
   4  -1   2   62.23    2.49
   4   1  -2   60.13    2.34
   4   1  -2   62.54    2.32
  -2  -1   4   61.32    2.27
  -1  -4   2   61.05    2.04
  -1  -4   2   58.03    2.04
  -4   2  -1   63.56    2.25
   2  -4   1   62.38    2.24
   2   4  -1   62.98    2.19
   2   4  -1   60.76    2.15
  -2  -4  -1   63.02    2.42
  -2  -4  -1   59.88    2.34
  -2  -1   4   59.21    2.24
   1   4   2   61.09    2.35
  -2   1  -4   62.86    2.20
  -2   1  -4   61.26    2.21
  -4  -2   1   64.69    2.39
  -4  -2   1   57.51    2.28
  -4  -2   1   63.64    2.26
  -4   2  -1   62.27    2.25
   1   2  -4   58.97    2.10
   1   2  -4   59.31    2.09
   4  -2  -1   63.82    2.35
   4  -2  -1   61.66    2.31
   4  -2  -1   62.23    2.19
  -4  -1  -2   63.05    2.37
   2   1   4   59.99    2.36
   2  -4   1   64.47    2.10
   2  -4   1   61.42    2.07
   2  -4   1   62.73    2.33
  -2   4   1   63.35    2.23
   4   2   1   60.31    2.35
   4   2   1   62.52    2.45
  -1  -2  -4   57.63    2.44
  -1  -2  -4   61.07    2.43
  -2   4   1   63.84    2.34
  -2   4   1   62.62    2.29
  -4  -1  -2   62.13    2.41
   2  -1  -4   60.57    2.40
   4  -1   2   63.90    2.28
   2   1   4   63.87    2.45
   1   4   2   59.99    2.47
   2  -1  -4   59.95    2.33
  -4   1   2   63.96    2.35
  -4   1   2   61.50    2.38
   4   1   2   60.73    2.43
   1   4  -2   58.60    2.14
  -2   1   4   63.35    2.40
  -1   2  -4   62.29    2.24
   2  -4  -1   61.60    2.25
  -1  -4  -2   64.34    2.45
   2  -1   4   63.37    2.25
   4  -1  -2   62.61    2.39
   4  -1  -2   61.42    2.34
   2   1  -4   60.81    2.22
   2   1  -4   60.58    2.34
   2  -4  -1   59.16    2.29
  -2   1   4   61.12    2.35
   1   2   4   58.30    2.40
   1   2   4   60.02    2.50
  -2  -4   1   61.20    2.20
   4  -2   1   63.25    2.29
   4  -2   1   61.66    2.23
   4  -2   1   59.64    2.26
   4   2  -1   58.07    2.34
   4   2  -1   61.00    2.30
   4   2  -1   59.90    2.19
  -4   2   1   61.39    2.34
  -4   2   1   62.05    2.17
   2   1  -4   59.58    2.27
   2   4   1   60.37    2.47
   2   4   1   61.53    2.39
  -1  -2   4   60.95    2.13
  -1  -2   4   60.19    2.14
  -1  -2   4   63.13    2.10
  -1  -2   4   60.14    2.37
   2  -4  -1   65.95    2.33
  -4  -2  -1   61.95    2.44
  -4  -2  -1   59.65    2.35
  -4  -2  -1   53.51    2.21
   1  -2  -4   59.60    2.38
   1  -4   2   62.56    2.29
   1  -4   2   62.89    2.29
   4   1   2   59.96    2.33
  -2  -1  -4   59.16    2.38
  -2  -1  -4   59.32    2.36
  -4  -1   2   59.91    2.29
  -2  -4   1   59.35    2.20
  -2  -4   1   61.93    2.40
  -2   4  -1   62.86    2.29
  -4   2   1   63.09    2.30
   2  -1   4   63.46    2.26
   1  -2  -4   61.53    2.44
  -4   1  -2   60.56    2.26
  -4   1  -2   62.07    2.26
  -1  -4  -2   56.62    2.36
   4  -1  -2   61.41    2.19
  -4  -1   2   61.30    2.36
   4  -1  -2   63.62    2.07
  -1   4   2   59.85    2.40
  -1   4   2   58.91    2.27
  -2  -2   4  114.74    4.02
  -2   2  -4  118.52    3.80
  -2  -2   4  112.43    3.81
  -2  -2   4  119.78    3.85
   4   2  -2  118.56    3.90
  -2  -2  -4  111.64    4.07
  -2  -4   2  117.91    4.03
  -2  -2  -4  112.04    4.07
  -2   4   2  116.85    4.02
   4   2   2  118.21    4.04
   4   2   2  115.79    4.09
   2   2   4  117.94    4.15
  -2   2   4  115.99    3.79
  -2   4  -2  114.98    3.91
  -2   4   2  117.10    3.92
  -2  -4   2  111.82    3.76
  -2   4   2  115.71    3.90
   2  -4  -2  119.17    4.02
   2  -4  -2  117.44    3.98
   4   2  -2  115.59    3.96
   4   2  -2  112.63    3.90
  -4  -2  -2  117.46    4.08
  -4  -2  -2  112.40    4.02
  -4  -2   2  121.50    3.98
  -4  -2   2  113.46    3.93
  -4  -2   2  114.94    3.92
  -4   2  -2  117.10    3.83
  -4   2  -2  116.37    3.83
  -4   2   2  117.68    3.98
  -4   2   2  114.60    4.01
  -4   2   2  117.12    3.76
  -2  -4  -2  117.16    4.09
  -2  -4  -2  115.63    4.06
  -2   2   4  115.17    4.03
  -2  -4   2  113.61    3.75
   2  -4   2  117.08    3.95
   2  -4   2  122.51    3.86
   2  -2  -4  112.05    4.05
   2  -2  -4  116.99    4.03
   2  -2   4  114.28    3.77
   2  -2   4  113.62    3.74
   2  -2   4  116.34    3.94
   2   2  -4  113.83    3.80
   2   2  -4  116.57    3.78
   2   2  -4  108.82    3.96
   2   2   4  115.79    4.07
   4  -2  -2  117.03    3.78
   2   4  -2  116.96    3.70
   2   4  -2  118.03    3.79
   2   4  -2  113.45    3.72
   2   4   2  110.53    3.98
   2   4   2  112.98    4.07
   4  -2  -2  114.26    4.02
   4  -2  -2  115.24    3.98
   4  -2   2  119.15    3.95
   4  -2   2  116.83    3.85
   3   0   4   30.88    1.56
   0   4   3   30.36    1.45
   3   0  -4   30.42    1.60
   3   0  -4   31.78    1.47
   3   0  -4   31.57    1.50
   3   0   4   32.14    1.48
   4   0   3   33.65    1.60
   4  -3   0   32.25    1.46
   4  -3   0   32.61    1.42
   4  -3   0   31.86    1.49
  -4  -3   0   34.65    1.67
  -4  -3   0   29.27    1.46
  -4  -3   0   30.89    1.52
  -4   3   0   31.89    1.50
   3  -4   0   28.86    1.50
   3   4   0   29.96    1.58
   3   4   0   31.10    1.54
   3   4   0   30.56    1.34
   4   0  -3   29.61    1.61
   4   0  -3   30.88    1.50
   4   0  -3   31.96    1.42
   4   0   3   31.56    1.46
   4   3   0   30.92    1.46
   4   3   0   32.75    1.62
  -4   0   3   31.65    1.51
  -4   0   3   31.76    1.61
  -3  -4   0   32.43    1.58
  -3  -4   0   30.89    1.48
  -3  -4   0   31.83    1.63
  -3   4   0   31.61    1.36
  -3   4   0   31.46    1.45
  -3   4   0   32.60    1.44
   0  -3  -4   29.94    1.72
   0  -3  -4   33.23    1.62
   0  -3   4   34.42    1.43
   0  -3   4   32.26    1.55
   0   3  -4   31.13    1.45
   0   3   4   30.17    1.56
   0   3   4   30.64    1.74
   3  -4   0   33.77    1.43
   3  -4   0   32.57    1.38
  -3   0   4   32.46    1.48
  -3   0   4   33.56    1.60
   0  -4  -3   30.16    1.70
   0  -4  -3   31.34    1.56
   0  -4   3   31.71    1.45
   0  -4   3   31.25    1.55
   0   4   3   33.37    1.55
   0   4   3   30.68    1.74
  -3   0  -4   33.80    1.26
  -4   0  -3   32.27    1.56
  -4   0  -3   33.22    1.48
  -3   0  -4   32.76    1.59
  -3   0  -4   29.71    1.50
  -4   3   0   32.94    1.39
   1  -4  -3    6.73    1.03
   4   1  -3    5.00    0.68
   1   4   3    6.94    1.00
  -1  -4   3    6.30    0.92
   4   1  -3    4.26    0.65
  -3   4   1    5.43    0.65
  -1  -3  -4    6.56    1.05
  -1  -3  -4    5.66    0.88
  -4  -3   1    7.09    0.98
  -4  -3   1    5.63    0.73
  -4  -3   1    6.30    0.87
  -4   3  -1    6.84    0.86
  -4   3  -1    4.74    0.70
  -1   3   4    4.90    0.79
  -1   3   4    3.97    0.83
   4   3   1    4.83    0.79
   4   3   1    6.26    1.06
   1  -3   4    5.78    0.83
   1  -3   4    5.14    0.81
   1   3  -4    5.18    0.70
  -3   1  -4    6.62    0.90
  -3   1  -4    7.58    0.89
  -3   1  -4    5.35    0.58
   4   1  -3    6.29    0.92
   3   4  -1    4.91    0.51
   3  -4   1    6.45    0.64
   3  -4   1    5.34    0.55
   3  -4   1    6.79    0.89
   3  -4   1    6.27    0.71
   3   4  -1    4.46    0.73
  -4   1   3    4.84    0.74
  -4   1   3    8.07    1.11
  -4   1   3    4.94    0.48
  -3  -4  -1    7.65    1.08
   3  -1  -4    6.05    0.96
   3  -1  -4    5.29    0.83
   3  -1  -4    4.98    0.76
  -3  -1   4    7.41    0.94
   4  -1   3    6.76    0.93
  -3  -4  -1    4.87    0.73
  -3  -1   4    4.27    0.66
   3   1   4    5.45    0.78
   3   1   4    6.50    0.98
   4  -3  -1    5.65    0.82
   4  -3  -1    5.50    0.71
   4  -3  -1    6.07    0.81
  -1  -4   3    5.42    0.51
  -1  -4   3    5.24    0.44
  -1  -4   3    5.19    0.73
   1   4   3    5.86    1.12
  -3   4   1    5.15    0.70
  -3  -4  -1    7.14    1.04
   4  -1   3    5.23    0.65
  -4  -1  -3    7.43    1.11
   1  -4  -3    4.92    0.79
  -4  -1  -3    4.89    0.73
  -3   4   1    5.50    0.83
   3   1  -4    5.44    0.72
   3   1  -4    6.03    0.97
   1  -4   3    6.00    0.83
   1  -3  -4    5.81    0.85
   3  -4  -1    6.13    0.88
  -3   1   4    5.49    0.78
  -3   1   4    5.59    1.00
   4  -1  -3    5.86    0.75
  -1  -4  -3    5.81    1.09
  -1  -4  -3    4.66    0.74
   4  -3   1    4.21    0.66
   4  -3   1    4.92    0.58
   4  -3   1    6.85    0.98
   3   4   1    5.82    0.84
  -1   4   3    4.54    0.75
  -1   4   3    4.79    0.88
  -1   4   3    4.52    0.66
  -4  -3  -1    6.91    0.83
  -4  -3  -1    6.12    0.88
  -1  -3   4    5.25    0.48
  -1  -3   4    4.86    0.57
  -1  -3   4    4.68    0.68
  -1  -3   4    5.28    0.89
  -1   3  -4    5.40    0.67
  -4   3   1    4.65    0.67
  -4   3   1    6.76    1.00
  -4   3   1    5.03    0.62
  -3  -1  -4    6.98    1.10
  -3  -1  -4    5.88    0.78
   3   4   1    7.53    1.10
   4  -1  -3    6.70    1.10
   4  -1  -3    5.84    0.78
   4   3  -1    6.20    0.95
   1   3   4    5.55    1.03
   3  -1   4    5.36    0.81
   3  -4  -1    6.13    0.70
   3  -4  -1    5.61    0.77
  -3   1   4    5.64    0.49
   1  -4   3    6.62    0.82
  -4  -1   3    7.30    1.06
  -4   1  -3    7.43    0.96
  -4   1  -3    5.51    0.75
   1   4  -3    4.80    0.54
   1   4  -3    4.47    0.69
   4   1   3    5.68    0.75
   4   1   3    7.88    1.08
   4   3  -1    5.36    0.71
   1  -3  -4    5.95    1.15
  -3  -4   1    6.34    0.90
  -3  -4   1    5.47    0.70
  -3  -4   1    5.97    0.94
  -3   4  -1    5.54    0.75
  -3   4  -1    5.63    0.57
  -3   4  -1    6.37    0.70
   3  -1   4    6.07    0.68
   1   3   4    4.79    0.78
  -4  -3  -1    5.69    1.01
  -2  -4   3   23.05    1.09
  -2  -4   3   23.45    1.07
   2   4   3   21.51    1.75
   4  -2   3   23.20    1.16
   4  -2   3   26.44    1.30
   4  -2   3   24.15    1.39
   4   2  -3   23.02    1.42
   4   2  -3   24.20    1.26
   4   2  -3   24.79    1.26
   3  -4   2   24.52    1.05
   2   4   3   23.47    1.38
  -4  -3   2   23.91    1.46
  -4   3  -2   23.96    1.23
   2  -3   4   23.77    0.99
   2  -3   4   24.64    1.40
   2  -3   4   24.39    1.22
   2   3  -4   24.11    1.17
   2   3  -4   26.16    1.34
  -4   2   3   25.04    1.34
  -3  -2   4   23.25    1.21
  -3  -2   4   24.14    1.55
  -3   2  -4   24.50    1.19
   2  -4  -3   24.13    1.58
   3  -4   2   24.94    1.04
   3  -4   2   19.52    1.37
   3  -4   2   24.71    1.17
   3   4  -2   22.49    1.27
   3   4  -2   24.58    1.24
   3   2   4   24.81    1.41
  -2   3   4   24.67    1.42
  -2   3   4   22.88    1.54
  -2   3   4   24.62    1.19
  -4  -2  -3   23.83    1.63
  -4  -2  -3   24.78    1.39
  -3   2  -4   24.48    1.19
  -3   2  -4   24.63    1.08
   4  -3  -2   24.62    1.51
   4  -3  -2   24.28    1.33
   4   3   2   23.52    1.37
   4   3   2   23.17    1.64
  -4   2   3   24.75    1.48
  -4   2   3   24.78    1.04
  -3  -4  -2   23.74    1.69
  -3  -4  -2   24.12    1.39
  -4   3  -2   24.98    1.16
   3   2   4   24.03    1.64
   2  -4  -3   23.49    1.37
  -3   4   2   25.45    1.27
  -3   4   2   23.58    1.42
  -3   4   2   23.63    1.18
  -2  -3  -4   23.61    1.62
  -2  -3  -4   22.79    1.40
   4  -3  -2   22.28    1.26
   3  -2  -4   23.72    1.54
   3  -2  -4   23.48    1.38
  -4  -3   2   23.98    1.23
  -4  -3   2   25.49    1.40
  -4  -3  -2   25.44    1.42
  -4  -3  -2   25.82    1.68
  -4  -2   3   21.22    1.46
   4  -2  -3   23.70    1.36
  -3  -4   2   22.30    1.25
  -4   3   2   25.11    1.32
  -4   3   2   24.39    1.15
  -3  -2  -4   24.91    1.65
  -3  -2  -4   24.90    1.42
   2   3   4   23.47    1.74
   4   2   3   25.32    1.39
   3  -4  -2   25.39    1.33
  -4  -2   3   26.00    1.41
  -4   2  -3   24.22    1.24
  -3   2   4   24.82    1.38
  -3   2   4   22.30    1.50
  -3   2   4   24.77    1.07
  -2  -4  -3   24.80    1.65
   3   4   2   24.53    1.41
   4  -2  -3   22.68    1.51
  -2   4   3   25.53    1.40
  -2   4   3   25.07    1.24
  -3  -4   2   24.97    1.20
  -3  -4   2   24.28    1.49
   2  -4   3   23.07    1.41
   2  -4   3   25.10    1.25
   2   4  -3   23.30    1.09
   2   4  -3   22.96    1.29
   4   2   3   26.05    1.65
  -2  -3   4   24.56    1.18
  -2  -3   4   24.19    1.02
   3  -2   4   24.22    1.14
   3  -2   4   24.27    1.20
   3  -2   4   23.94    1.42
   3   2  -4   24.17    1.37
   3   2  -4   23.99    1.24
   3   2  -4   23.21    1.27
  -2   3  -4   22.79    1.14
   3  -4  -2   23.93    1.43
   2  -3  -4   22.56    1.57
   2  -3  -4   24.66    1.43
  -4  -2   3   22.88    1.22
   4  -3   2   24.39    1.17
   4  -3   2   23.62    1.12
   4  -3   2   25.50    1.45
   4   3  -2   24.39    1.43
   4   3  -2   22.42    1.21
  -4   2  -3   23.95    1.21
   2   3   4   24.98    1.43
  -4  -3  -3    2.82    0.89
  -4  -3   3    3.40    0.89
  -4  -3   3    2.12    0.60
  -4   3  -3    4.06    0.77
  -4   3  -3    4.80    0.82
  -4   3   3    2.94    0.78
  -4   3   3    2.83    0.55
  -3  -4  -3    2.81    1.28
  -3  -4  -3    2.25    0.71
  -3  -4   3    2.92    0.72
  -3  -4   3    4.31    0.65
  -3  -3  -4    3.13    0.87
  -3  -3   4    3.24    0.79
  -3   3   4    3.68    0.76
  -3   3   4    4.28    0.63
  -3   4   3    3.11    0.77
  -3   4   3    3.02    0.70
   3  -4  -3    2.08    0.95
   3  -4  -3    3.57    0.82
   3  -4   3    3.59    0.48
   3  -4   3    3.35    0.45
   3  -4   3    2.86    0.66
   3  -3  -4    4.49    1.92
   3  -3  -4    3.43    0.85
   3  -3   4    3.47    0.55
   3  -3   4    3.83    0.63
   3   3  -4    2.85    0.86
   3   3  -4    3.46    0.77
   3   3  -4    2.94    0.63
   3   3   4    3.56    0.89
   3   3   4    4.51    1.72
   3   4  -3    3.09    0.79
   3   4  -3    3.18    0.70
   3   4  -3    3.15    0.65
   3   4   3    3.49    0.89
   4  -3  -3    3.31    1.14
   4  -3  -3    2.95    0.78
   4  -3   3    4.05    0.69
   4  -3   3    3.84    0.59
   4   3  -3    3.14    0.78
   4   3  -3    3.81    0.70
   4   3   3    3.10    0.83
  -4  -4   0   55.54    2.45
  -4  -4   0   57.35    2.35
  -4  -4   0   58.57    2.44
  -4   0  -4   59.35    2.32
  -4   0   4   57.56    2.34
  -4   0   4   56.89    2.48
  -4   4   0   57.16    2.31
  -4   4   0   57.50    2.26
   0  -4  -4   55.69    2.62
   0  -4  -4   57.32    2.47
   0  -4   4   58.40    2.25
   0  -4   4   55.92    2.40
   0   4  -4   55.56    2.29
   0   4   4   59.16    2.45
   4  -4   0   57.64    2.28
   4  -4   0   60.92    2.23
   4   0  -4   60.38    2.37
   4   0  -4   59.76    2.34
   4   0   4   58.40    2.33
   4   0   4   57.93    2.45
   4   4   0   60.81    2.35
  -4  -4  -1   26.48    1.79
  -4  -4  -1   28.32    1.52
  -4  -4  -1   24.66    1.59
  -4  -4   1   26.39    1.58
  -4  -4   1   26.07    1.38
  -4  -4   1   25.42    1.65
  -4  -1  -4   27.22    1.48
  -4  -1   4   28.36    1.42
  -4  -1   4   26.23    1.62
  -4   1  -4   25.25    1.51
  -4   1  -4   27.72    1.43
  -4   1   4   26.59    1.46
  -4   1   4   24.63    1.63
  -4   4  -1   26.86    1.42
  -4   4  -1   27.87    1.28
  -4   4   1   28.69    1.37
  -4   4   1   25.69    1.30
  -1  -4  -4   22.95    1.78
  -1  -4  -4   28.18    1.63
  -1  -4   4   26.51    1.34
  -1   4  -4   27.08    1.35
  -1   4   4   26.42    1.54
  -1   4   4   25.25    1.37
   1  -4  -4   21.61    1.77
   1  -4  -4   27.31    1.60
   1  -4   4   26.83    1.53
   1  -4   4   25.37    1.48
   1   4  -4   27.00    1.42
   1   4   4   27.14    1.59
   4  -4  -1   25.23    1.52
   4  -4  -1   27.59    1.38
   4  -4  -1   24.21    1.47
   4  -4   1   26.21    1.32
   4  -4   1   27.58    1.23
   4  -4   1   26.53    1.24
   4  -1  -4   27.85    1.51
   4  -1  -4   26.83    1.42
   4  -1   4   25.37    1.34
   4  -1   4   26.71    1.49
   4   1  -4   25.73    1.37
   4   1  -4   25.51    1.41
   4   1   4   26.15    1.45
   4   1   4   24.58    1.72
   4   4  -1   26.95    1.40
   4   4  -1   27.66    1.17
   4   4   1   28.49    1.51
  -4  -4  -2   40.11    2.32
  -4  -4  -2   41.00    2.00
  -4  -4  -2   40.81    2.04
  -4  -4   2   38.94    1.89
  -4  -4   2   40.61    1.79
  -4  -2  -4   41.59    1.97
  -4  -2   4   40.95    1.98
  -4   2  -4   39.29    1.73
  -4   2  -4   41.76    1.80
  -4   2   4   41.08    1.93
  -4   2   4   41.58    1.54
  -4   4  -2   41.82    1.71
  -4   4   2   40.71    1.86
  -4   4   2   40.62    1.72
  -2  -4  -4   38.84    1.99
  -2  -4   4   39.85    1.62
  -2  -4   4   40.27    1.55
  -2  -4   4   40.79    1.62
  -2   4   4   42.32    2.02
  -2   4   4   41.27    1.76
   2  -4  -4   37.98    2.16
   2  -4  -4   41.47    2.01
   2  -4   4   40.89    1.81
   2   4  -4   41.27    1.87
   2   4   4   40.74    2.00
   4  -4  -2   37.81    2.00
   4  -4  -2   40.14    1.84
   4  -4  -2   35.32    1.84
   4  -4   2   39.45    1.64
   4  -4   2   41.55    1.62
   4  -4   2   41.55    1.59
   4  -2  -4   40.71    1.98
   4  -2   4   39.64    1.69
   4  -2   4   41.42    1.82
   4   2  -4   41.32    1.82
   4   2  -4   40.10    1.82
   4   2   4   39.99    1.96
   4   2   4   38.03    2.23
   4   4  -2   42.39    1.81
   4   4  -2   41.50    1.50
   4   4   2   40.72    1.97
  -4  -4  -3   11.36    1.23
  -4  -4   3   11.44    1.27
  -4  -4   3   10.16    0.97
  -4  -3  -4   10.98    1.25
  -4  -3   4   10.29    1.33
  -4  -3   4   11.71    0.94
  -4   3   4   11.51    1.30
  -4   3   4   11.54    0.88
  -4   4   3   12.29    1.25
  -4   4   3   11.15    0.93
  -3  -4   4   10.54    1.12
  -3  -4   4   11.70    0.88
  -3   4   4   13.09    1.29
  -3   4   4   12.97    0.98
   3  -4  -4   11.80    1.28
   3  -4   4   11.59    1.05
   3   4  -4   12.72    1.12
   3   4  -4   12.13    1.26
   3   4  -4   11.23    1.04
   3   4   4   11.70    1.33
   4  -4  -3   12.58    1.52
   4  -4  -3   10.33    1.14
   4  -4   3   10.88    0.89
   4  -4   3   10.29    0.79
   4  -4   3   11.40    0.89
   4  -3  -4   11.41    1.25
   4  -3   4   11.19    0.87
   4   3  -4   10.88    1.14
   4   3  -4   11.48    1.04
   4   3   4   12.36    1.28
   4   4  -3   12.15    1.16
   4   4  -3   12.53    1.05
   4   4   3   11.28    1.34
  -4  -4  -4   16.45    1.51
  -4  -4   4   15.00    1.47
  -4  -4   4   15.08    1.09
  -4   4   4   20.47    1.69
  -4   4   4   14.16    1.12
   4  -4  -4   15.78    1.46
   4  -4   4   14.18    1.04
   4  -4   4   15.01    0.98
   4   4  -4   15.40    1.36
   4   4  -4   14.08    1.22
   4   4   4   16.23    1.55
  -5   0   0    7.87    0.92
  -5   0   0    9.04    0.83
   0  -5   0    8.06    0.83
   0  -5   0    9.06    0.73
   0   0  -5    7.00    1.00
   0   0  -5    8.75    0.86
   0   0  -5    8.98    0.83
   0   0   5    8.04    0.79
   0   0   5    7.35    0.92
   0   5   0    8.09    0.69
   0   5   0    8.04    0.87
   0   5   0    8.03    0.76
   5   0   0    7.70    1.06
   5   0   0    8.74    0.80
   5   0   0    7.88    0.75
  -5   0  -1    0.17    0.57
  -5   0  -1    0.24    0.49
  -5   0   1    0.49    0.60
  -5   0   1    0.67    0.48
  -1  -5   0    0.65    0.65
  -1  -5   0    0.78    0.47
  -1  -5   0    0.61    0.81
  -1   5   0    0.05    0.45
  -1   5   0    0.56    0.67
  -1   5   0    0.60    0.48
   0  -1  -5    0.32    0.81
   0  -1  -5   -0.50    0.59
   0  -1   5    0.29    0.44
   0  -1   5   -0.24    0.53
   0   1  -5   -0.70    0.66
   0   1  -5    0.44    0.57
   0   1  -5    0.34    0.49
   0   1   5    0.21    0.51
   0   1   5    0.23    0.66
   1  -5   0    0.84    0.59
   1  -5   0    1.24    0.43
   1  -5   0    0.50    0.64
   1   5   0    0.55    0.54
   1   5   0    0.42    0.68
   1   5   0    0.93    0.48
   5   0  -1    0.38    0.78
   5   0  -1    0.91    0.52
   5   0  -1   -0.41    0.43
   5   0  -1    0.28    0.31
   5   0   1    0.33    0.47
   1   0  -5   -0.09    0.51
   1   0   5    0.00    0.44
   1   0   5    1.08    0.81
   5  -1   0    0.86    0.69
   5  -1   0    0.44    0.48
   5  -1   0    0.54    0.53
   5   1   0   -0.55    0.67
   5   1   0    0.94    0.53
  -1   0   5    0.61    0.74
   0  -5  -1    0.00    0.65
   0  -5  -1    0.80    0.57
   0  -5   1    0.65    0.49
   0  -5   1    0.33    0.39
   0  -5   1    0.59    0.59
   0  -5   1    0.36    0.73
   0   5  -1    0.25    0.42
   0   5   1    0.15    0.52
   0   5   1    0.27    0.82
   0   5   1    0.18    0.45
   1   0  -5    0.33    0.73
   1   0  -5    0.87    0.73
  -1   0  -5    0.75    0.56
  -1   0  -5    0.91    0.50
  -1   0   5   -0.06    0.47
  -5   1   0    0.70    0.47
  -1   0  -5    0.26    0.81
  -5  -1   0    0.44    0.45
  -5   1   0    1.29    0.64
  -5  -1   0   -0.09    0.55
  -5  -1   0    0.02    0.52
   1   5   1   12.35    0.90
   5  -1  -1   12.10    1.09
   1   5   1   12.88    0.96
   1   5   1   12.35    1.21
   5   1  -1   12.12    0.96
   5   1  -1   12.35    0.71
  -5   1   1   13.30    0.94
  -1  -5  -1   11.14    1.12
  -1  -5  -1   12.59    0.93
  -1  -5   1   12.96    0.89
  -1  -5   1   13.30    0.79
  -1  -5   1   12.24    1.18
  -1  -1  -5   11.66    1.21
  -1  -1  -5   11.50    1.01
  -1  -1   5   12.65    0.88
  -1  -1   5   12.52    0.99
  -1   1  -5   12.24    1.04
  -1   1  -5   12.46    0.95
  -1   1  -5   12.87    0.89
  -1   1   5   11.62    1.01
  -1   1   5   14.53    1.27
  -5   1   1   13.24    1.08
   5   1   1   13.15    1.23
  -1   5  -1   11.90    0.89
  -1   5   1   12.17    0.88
  -1   5   1   11.50    1.18
  -1   5   1   11.99    0.92
   1  -5  -1   13.62    1.10
  -5  -1  -1   12.57    1.18
  -5  -1  -1   13.82    1.02
  -5  -1   1   11.59    1.12
  -5  -1   1   13.36    0.97
  -5   1  -1   11.79    1.02
  -5   1  -1   11.27    0.93
   1   1  -5   12.61    0.95
   1   1  -5   12.58    0.97
   1   1   5   13.61    1.01
   5   1  -1   13.33    0.73
   5  -1  -1   13.50    0.94
   5  -1  -1   14.80    0.87
   5  -1   1   14.82    1.17
   5  -1   1   12.86    0.90
   5  -1   1   14.06    1.02
   5   1  -1   12.40    1.21
   1   1   5   12.51    1.22
   1   5  -1   11.78    0.81
   1   5  -1   12.75    0.87
   1  -5  -1   13.52    0.94
   1  -5   1   13.34    0.84
   1  -5   1   12.76    0.71
   1  -5   1   12.34    1.03
   1  -5   1   13.73    1.10
   1  -1  -5   11.63    1.22
   1  -1  -5   13.03    1.04
   1  -1   5   11.97    0.88
   1  -1   5   13.12    1.01
   1   1  -5   12.25    1.08
   5   1   1   13.05    1.00
  -5   0   2    6.26    1.02
   0   2   5    7.94    1.23
   2  -5   0    7.68    0.88
  -5   0  -2    8.68    0.91
   2   0   5    8.16    1.07
   5  -2   0    6.67    0.94
   5  -2   0    7.67    0.75
   5  -2   0    6.03    0.90
   5   2   0    6.62    0.85
  -5  -2   0    7.06    1.15
  -5  -2   0    7.49    0.88
  -5  -2   0    7.00    0.81
  -5   2   0    6.25    0.92
  -5   2   0    7.01    0.76
  -2   0  -5    8.09    1.14
  -5   0  -2    7.82    1.20
   2   0   5    7.14    0.84
  -2   0  -5    8.42    1.00
  -2   0  -5    8.43    0.75
  -2   0   5    7.24    0.80
  -2   0   5    7.00    1.07
   0  -5  -2    7.80    1.20
   0  -5  -2    7.07    0.87
   0  -5   2    7.15    0.94
   0  -5   2    7.16    1.04
   0   5  -2    8.86    0.76
   0   5   2    7.61    0.82
   0   5   2    9.10    1.28
   0   5   2    7.93    0.79
   2   0  -5    8.21    1.15
   2   0  -5    8.00    0.88
   2   0  -5    7.42    0.87
  -5   0   2    7.57    0.79
  -2  -5   0    9.52    1.15
  -2  -5   0    7.86    0.79
  -2  -5   0    8.69    1.16
  -2   5   0    8.56    0.73
  -2   5   0    8.34    1.01
  -2   5   0    7.33    0.77
   0  -2  -5    5.49    1.07
   0  -2  -5    7.68    1.04
   0  -2   5    7.58    0.69
   0  -2   5    7.01    0.77
   0  -2   5    8.26    0.88
   0   2  -5    7.88    0.83
   0   2  -5    7.98    0.85
   0   2   5    6.76    0.93
   5   0   2    8.98    1.17
   5   0  -2    7.30    0.68
   2  -5   0    8.04    0.71
   2   5   0    7.97    0.86
   2   5   0    7.76    1.08
   2   5   0    7.44    0.71
   5   0  -2    7.64    1.09
   5   0  -2    8.59    0.83
   5   0   2    8.42    0.85
   1  -2   5    0.27    0.60
   1  -2   5   -0.30    0.41
  -2   1  -5    0.13    0.43
   2  -1  -5   -0.40    0.49
  -2  -1   5    0.02    0.47
  -5  -2   1   -0.82    0.73
  -5  -2   1    0.36    0.51
  -5  -2   1   -0.06    0.63
  -5   2  -1    0.33    0.74
  -5   2  -1    0.49    0.55
   5  -2  -1    0.32    0.70
  -5  -1  -2    0.25    0.88
  -5  -1  -2    0.81    0.59
   5  -2  -1   -0.18    0.61
   1  -5  -2    0.66    0.96
   2   1   5    0.55    0.53
   2   1   5    0.89    0.97
  -5   1   2    0.44    0.77
  -2  -5  -1    0.15    0.88
  -2  -5  -1    0.02    0.49
   5  -2  -1    0.22    0.32
   5  -1   2    1.17    0.62
   5   1  -2   -0.09    0.74
  -1  -5   2    0.99    0.46
  -2   5   1    0.96    0.55
  -2   5   1   -0.56    0.80
  -2   5   1    0.08    0.44
  -1  -2  -5    1.19    1.14
  -1  -2  -5    0.38    0.65
   2   5  -1    0.13    0.43
   5   2   1    0.84    0.60
   5   2   1    0.55    0.86
  -2  -1   5    1.23    0.81
  -2   1  -5    0.67    0.77
  -1   2   5    0.95    0.57
  -1   2   5    0.26    0.79
   1   5   2    0.63    0.92
  -1  -5   2    0.53    0.39
  -1  -5   2    1.37    0.82
  -1   5  -2    1.25    0.51
   1  -2   5    0.70    0.67
   1   2  -5   -0.22    0.66
   1   2  -5    0.58    0.55
   1   2  -5   -0.11    0.49
   1  -5  -2    0.32    0.54
   1   5   2   -0.15    0.62
   5   1  -2   -0.40    0.53
   2  -5   1    0.20    0.51
   2  -5   1    0.68    0.39
   2  -5   1   -0.12    0.85
   2  -5   1    0.80    0.69
   2   5  -1    0.14    0.59
   5  -2  -1    0.51    0.46
  -2   1  -5    0.36    0.65
   1   5   2    0.12    0.46
   2  -1  -5    1.05    0.67
   5   1  -2    0.49    0.38
   5  -1   2    0.78    0.45
   1   2   5   -0.03    1.00
   5  -1  -2    0.73    0.41
   5  -1  -2    0.30    0.49
  -2  -5   1   -0.27    0.46
  -2  -5   1    0.29    0.87
   2  -5  -1    0.70    0.52
  -5  -2  -1   -0.23    0.56
  -1  -2   5    0.61    0.42
  -5  -1   2   -0.67    0.88
  -2  -5   1    1.20    0.64
   5  -2   1    0.83    0.76
   5  -2   1    0.42    0.50
   1  -2  -5   -1.52    1.11
  -5  -2  -1   -0.11    0.86
  -2   1   5   -0.12    0.54
  -2   1   5   -0.49    0.73
  -1  -5  -2   -0.02    0.90
  -1  -5  -2   -0.53    0.44
  -2   5  -1    0.41    0.47
   1  -2  -5   -0.62    0.67
  -2  -1  -5   -0.51    0.85
  -2  -1  -5    0.23    0.67
  -1   5   2   -0.20    0.49
  -1   5   2    0.00    1.00
  -1   5   2    0.54    0.49
  -5  -1   2    0.14    0.41
   1   2   5    0.49    0.59
   1  -5   2   -0.30    0.66
   1  -5   2   -0.40    0.66
   1   5  -2   -0.38    0.45
   5  -1  -2    0.18    0.44
   2   5   1    0.12    0.69
   2   5   1   -0.53    0.92
   2   5   1    0.33    0.51
   5  -1  -2    1.22    0.86
   2  -1   5   -0.04    0.49
   2  -1   5    1.20    0.75
   2   1  -5   -0.69    0.81
   2   1  -5    0.21    0.58
   2   1  -5    1.01    0.62
  -5   1  -2    0.33    0.73
  -5   1  -2    1.12    0.58
  -5   2   1   -0.02    0.46
   5   1   2    0.32    0.57
   5   1   2    0.71    0.91
  -1   2  -5   -0.35    0.55
  -1   2  -5    0.21    0.45
   5  -2   1   -0.57    0.72
   5   2  -1    0.52    0.60
  -1  -2   5   -0.07    0.58
  -5  -2  -1    0.63    0.53
  -1  -2   5    0.83    0.52
   5   2  -1    0.19    1.08
   2   5  -2    6.55    0.77
   2   5   2    7.02    0.94
   5  -2  -2    7.68    1.25
   2   5  -2    5.84    0.75
   2   2  -5    7.36    1.08
   5  -2  -2    8.69    0.95
   5  -2  -2    5.55    0.82
   5  -2  -2    6.80    0.71
   2   5  -2    6.56    0.69
   5   2  -2    7.20    0.90
   5   2  -2    7.01    0.76
   5   2   2    8.43    1.01
   5   2   2    9.16    1.41
  -2   2  -5    7.08    1.00
  -2   2  -5    5.85    0.71
   2   2  -5    6.92    0.90
   2   2  -5    6.99    0.91
   2   2   5    8.44    0.99
   2   2   5   10.71    1.56
  -2   5   2    6.85    0.85
  -2   5   2    6.06    0.83
   2  -5  -2    9.62    1.16
   2  -5  -2    6.88    0.87
   2  -5   2    7.42    1.01
   2  -2  -5    8.36    1.07
   2  -2   5    7.13    0.73
  -2   2   5    8.04    1.20
  -2   2   5    7.72    0.73
  -2   5  -2    7.62    0.82
  -2   2  -5    6.95    0.81
  -2  -5   2    7.33    0.80
  -2  -5   2    7.11    0.72
  -2   2   5    6.58    0.95
  -2  -2   5    5.79    0.69
  -2  -2   5    6.98    0.96
   5  -2   2    7.56    0.99
   5  -2   2    6.70    0.77
   2  -2   5    6.22    0.86
  -5  -2  -2    6.92    0.98
  -5  -2  -2    7.63    0.90
  -5  -2   2    8.56    1.22
  -5  -2   2    6.43    0.82
  -5  -2   2    8.39    1.09
  -5   2  -2    7.79    1.08
  -5   2  -2    7.45    0.97
  -5   2   2    7.25    0.97
  -2  -5  -2    6.60    1.24
  -2  -2  -5    8.18    1.11
   0   5  -3    0.63    0.55
   0  -5   3    0.07    0.81
   0   5   3    0.33    0.60
   3   0  -5    0.23    0.68
  -3   5   0   -0.80    0.88
  -5  -3   0    0.44    0.76
  -5   3   0    0.55    0.48
   0   5   3   -0.21    0.58
  -3  -5   0    1.16    0.86
  -3  -5   0    1.35    0.57
  -5  -3   0    0.36    0.58
   0  -5  -3    0.84    1.09
   0  -5  -3    1.23    0.66
   3   0  -5    0.71    0.60
   3   0   5    0.41    0.61
   3   0   5   -0.44    0.85
  -5   0  -3    0.00    0.68
  -5   0   3    1.00    0.89
   5  -3   0    1.06    0.80
   5  -3   0    0.15    0.48
  -3   0  -5    0.31    0.64
  -3   0  -5    0.33    0.43
  -3   0   5    1.29    0.66
  -3   0   5    0.59    0.89
   3   5   0    0.15    0.82
   3   5   0    0.52    0.48
   5   0  -3    0.10    0.60
   5   0  -3    0.66    0.48
   5   0   3   -0.31    0.49
   5   0   3   -0.69    0.89
   0   3   5    1.12    1.12
   3  -5   0   -1.38    0.64
  -5  -3   0    1.95    1.04
   0   3  -5    0.67    0.50
   5  -3   0   -1.23    0.72
  -3   5   0   -0.20    0.50
   0  -3  -5   -0.62    0.77
   0  -3   5    0.10    0.36
   0  -3   5    0.16    0.53
   0  -3   5   -0.34    0.70
   0  -3   5    0.88    0.91
   5   3   0    0.35    0.68
   0   3   5   -0.19    0.65
  -3  -1   5    3.99    0.75
   1   5   3    4.70    0.76
  -5  -1  -3    6.28    0.94
  -5  -3   1    4.92    1.07
  -5  -3   1    4.40    0.83
  -5  -3   1    5.09    0.93
  -5   3  -1    6.68    0.87
  -3  -5  -1    5.95    1.33
   3  -1  -5    5.71    0.96
  -3  -1   5    6.81    1.13
  -3   1  -5    5.80    1.03
  -3   1  -5    5.53    0.93
  -3   1  -5    5.14    0.64
   5  -3  -1    3.45    0.92
   5  -3  -1    5.18    0.78
   5  -3  -1    3.81    0.79
  -5   1   3    5.45    0.87
   5   1  -3    3.50    0.66
  -1  -5   3    4.14    0.87
   3  -5   1    3.72    0.82
   3   5  -1    4.06    0.87
   1  -5  -3    4.80    1.16
   1  -5  -3    2.81    0.76
   5  -1   3    5.22    0.79
   5  -1   3    5.72    1.08
   3   1   5    4.34    1.15
   1   5   3    6.54    1.08
   1  -3   5    3.15    0.83
  -3   5   1    6.51    0.89
  -3   5   1    4.83    0.79
  -1  -3  -5    5.02    0.94
  -3  -5  -1    5.11    0.81
   5   3   1    4.62    0.90
   3  -1  -5    3.56    0.79
   3  -5   1    3.95    0.60
  -1   3   5    3.38    0.86
   3  -5   1    4.84    0.72
   1  -3   5    3.78    0.55
   5   1  -3    3.71    0.78
   1   3  -5    4.06    0.80
   3   5  -1    4.49    0.64
   3   1   5    4.99    0.92
  -3   5  -1    3.99    0.71
   1   3   5    4.08    1.56
   1  -3  -5    5.33    0.92
  -1   3  -5    4.09    0.71
  -1   5   3    4.42    0.84
  -1  -5  -3    3.88    0.92
   1   3   5    3.77    0.87
   3   5   1    5.03    0.86
   3   5   1    5.27    0.77
   5  -1  -3    4.62    0.88
   1   5  -3    4.88    0.68
   1  -5   3    3.55    1.01
   1  -5   3    4.52    0.92
   3  -5  -1    4.90    1.00
  -1  -3   5    5.06    0.76
   3  -1   5    4.85    0.80
   3   1  -5    4.60    0.83
   3   1  -5    4.80    0.79
   3  -5  -1    4.32    0.78
  -1   5   3    3.94    0.67
   5   1   3    5.39    0.95
  -5  -3  -1    4.16    1.23
  -5  -3  -1    5.40    0.95
  -5  -3  -1    3.87    0.86
  -3   1   5    4.74    0.87
  -3   1   5    4.34    1.23
  -3   1   5    4.21    0.54
  -1  -5  -3    5.27    1.37
  -3  -1  -5    4.03    0.85
  -1  -3   5    4.25    0.58
  -1  -3   5    4.36    0.69
  -3   5  -1    4.12    0.60
  -5   1  -3    4.85    0.81
   5  -3   1    5.33    0.96
   5   1   3    6.35    1.25
   5   3  -1    5.16    0.88
  -3  -5   1    4.58    0.73
  -5  -1   3    4.70    0.80
   5  -3   1    5.80    0.83
  -5  -1   3    4.88    1.10
   5  -1  -3    5.60    0.75
   2  -5  -3    1.17    0.71
  -3   2  -5   -0.44    0.76
  -3   5   2    0.42    0.56
  -2  -3  -5    0.39    0.80
   3  -2  -5    0.53    0.81
   2  -5  -3    0.74    0.96
  -3  -5  -2    0.37    0.61
  -5   2   3   -0.37    0.70
  -3   5   2   -0.41    0.62
   3   2   5   -0.34    0.66
  -3  -5  -2   -0.51    1.15
   3   2   5    1.79    1.22
  -2  -5   3    1.05    0.58
   2   3  -5    0.45    0.59
  -5  -3   2    0.17    0.88
  -5  -3   2   -0.18    1.03
  -5  -3   2    0.84    0.58
   3  -5   2    0.21    0.51
   3  -5   2    0.67    0.40
   3  -5   2    0.27    0.74
   3   5  -2    0.23    0.81
   3   5  -2   -0.05    0.68
   3   5  -2    1.02    0.46
  -3  -2   5    0.34    0.84
   5  -3  -2   -1.06    0.75
  -3   2  -5    0.99    1.14
   5  -2   3   -0.06    0.53
   5   2  -3    0.15    0.74
   5   2  -3    0.48    0.51
  -5  -2  -3    1.29    0.60
   2   3  -5    0.42    0.73
   5  -3  -2    1.54    1.13
  -2  -5   3    0.51    0.49
   5  -3  -2    0.51    0.63
  -2   3   5    0.31    0.72
  -2   3   5    0.53    0.57
  -3   2  -5    0.34    0.46
   2  -3   5    0.41    0.43
   2  -3   5    0.88    0.57
   2   5   3    0.13    0.78
   5   3   2    0.59    0.64
  -5  -2  -3    0.47    0.67
  -5   3  -2    0.98    0.66
  -3  -2   5    1.60    0.61
  -2  -3   5    0.04    0.47
  -5   2  -3    0.81    0.70
  -5   3   2    0.25    0.72
   3   2  -5    0.19    0.46
  -3  -2  -5    0.27    0.68
   3   2  -5   -0.93    0.67
   3   5   2    0.82    0.85
   5  -2  -3    0.13    0.69
   2   3   5   -0.13    0.73
  -3  -5   2    0.56    0.58
  -3   2   5    0.29    0.67
   3  -2   5    0.41    0.71
  -2  -5  -3   -0.14    1.06
   2  -3  -5    0.00    0.79
   2  -5   3   -0.61    0.77
   2   5  -3    0.79    0.48
  -2  -5  -3    0.36    0.53
  -5  -3  -2    1.30    0.79
  -5  -3  -2    0.23    0.75
   3  -5  -2   -0.10    0.97
   3  -5  -2    1.14    0.65
   5  -3   2    0.06    0.69
   5  -3   2    0.93    0.51
   5   3  -2    0.37    0.65
   5   3  -2    0.50    0.51
  -2  -3   5    0.75    0.72
  -2   3  -5    0.51    0.55
  -2   5   3    0.15    0.61
  -3  -5   2    1.04    0.76
  -2   5   3   -0.10    0.76
  -5   3   2    0.02    0.48
   5  -2  -3    0.06    0.55
  -5  -2   3    1.42    0.65
  -3   2   5    0.18    0.43
   5   2   3   -0.11    0.62
  -5  -2   3   -0.06    1.00
   3  -2   5    0.90    0.55
   3  -5  -3    1.96    1.35
   3   3   5    0.88    0.80
  -3   5   3   -0.06    0.66
   3   3  -5    0.58    0.86
   3   3  -5   -0.11    0.58
   3  -3  -5    1.27    0.92
   3  -3   5    1.33    0.60
   3   5  -3    0.88    0.80
   3   5   3    2.13    0.96
   5  -3  -3    1.24    0.79
   5  -3   3    1.15    0.93
   3  -3   5    1.33    0.69
  -5  -3  -3    1.63    0.84
  -5  -3  -3    1.27    0.87
  -5  -3   3    1.48    1.12
  -5  -3   3    0.89    0.61
  -5   3  -3    2.45    0.83
  -5   3   3    1.95    0.93
  -5   3   3    1.71    0.58
  -3  -5  -3    2.80    0.88
  -3  -5   3    2.20    0.81
  -3  -5   3    0.76    0.59
  -3  -3  -5    1.64    0.76
  -3  -3   5    1.41    0.97
  -3   3  -5    1.49    0.55
  -3   3   5    1.80    0.86
  -3   3   5    1.65    0.60
  -3   5   3    0.83    0.83
   5  -3   3    1.41    0.59
   5   3  -3    0.53    0.79
   3  -5  -3    1.19    0.73
   3  -5   3    0.44    0.77
   5   3  -3    2.17    0.69
   5   3   3    2.11    0.83
   3   5  -3    1.47    0.48
   4   5   0    6.64    0.92
   5   0  -4    5.42    1.00
   4   5   0    7.13    1.02
  -5   0  -4    6.41    0.97
  -5   0   4    6.49    1.00
  -4  -5   0    6.11    1.33
   5   0   4    6.67    0.92
   5   0   4    8.75    1.44
   4  -5   0    6.46    1.04
   4  -5   0    5.43    0.81
   5   4   0    6.89    1.14
  -5  -4   0    6.73    1.04
  -5  -4   0    5.57    1.17
  -5   4   0    5.32    0.82
  -4   0  -5    6.62    0.99
  -4   0  -5    7.26    0.88
  -4  -5   0    5.83    0.94
  -4   5   0    5.44    0.82
   0  -4  -5    7.50    1.19
   5   0  -4    6.79    0.89
  -4   0   5    7.08    1.25
   0  -5  -4    6.10    1.04
   0  -5   4    7.17    1.08
   0   5   4    4.20    1.03
   0   5   4    6.11    0.91
   4   0  -5    6.68    1.05
   4   0  -5    6.08    0.97
   4   0   5    6.65    0.99
   4   0   5    5.32    1.22
   5  -4   0    5.99    1.04
   5  -4   0    6.37    0.83
   0   4   5    6.92    1.25
  -5  -4   0    8.52    1.48
  -4   0   5    5.62    0.90
   0   4  -5    4.74    0.87
   0  -4   5    6.04    0.99
   5   4   1    2.11    0.91
   1   4  -5    1.39    0.67
   4   5  -1    2.31    0.87
   4   5  -1    2.35    0.62
  -1   4   5    1.31    0.90
  -4   5   1    1.20    0.57
  -1  -4  -5    1.95    0.94
  -5  -4   1    0.77    1.17
  -5  -4   1    1.55    0.72
  -5   4  -1    2.50    0.75
  -4  -1   5    1.86    1.16
  -5  -1  -4    2.77    0.86
  -4   1  -5    2.69    0.91
   4  -5   1    1.98    0.58
  -5   1   4    1.54    0.75
  -4  -5  -1    0.55    1.21
  -4  -5  -1    1.23    0.76
  -1  -5   4    0.78    0.86
   1  -5  -4    1.95    0.91
   1   5   4    1.57    0.89
   4  -1  -5    1.51    0.87
   4  -1  -5    1.15    0.72
  -4   5   1    1.37    0.76
   5   1  -4    1.11    0.67
   4  -5   1    2.37    0.82
   5  -4  -1    1.60    0.72
   4   1   5    0.39    0.76
   4   1   5    1.57    1.29
  -4  -1   5    1.35    0.69
   4  -5   1    1.83    0.77
   5  -1   4    1.73    0.70
   5  -1   4    1.43    1.05
   5   1  -4    2.09    0.88
  -1   4   5    1.29    0.65
   5  -4  -1    2.61    1.16
  -4  -5   1    2.59    1.16
   4  -1   5    4.74    1.17
   4   1  -5    2.34    0.83
   4   1  -5    0.96    0.68
  -1  -4   5    0.99    0.82
   4   5   1    0.27    0.88
   4  -1   5    1.98    0.71
  -1  -4   5    1.83    0.61
   1  -4  -5    1.84    0.89
  -4  -5   1    1.09    0.73
  -4   5  -1    3.51    1.03
  -5  -4  -1    1.59    0.82
   5   1   4    2.13    0.76
   5   1   4    3.33    1.40
   1   4   5    1.77    0.92
  -4   5  -1    2.62    0.73
  -4   5  -1    0.84    0.57
  -4  -1  -5    1.99    1.00
  -5   1  -4    1.86    0.74
  -5  -4  -1    2.28    1.04
  -5   4   1    3.14    0.75
  -1   5   4    1.14    0.91
  -1   5   4    1.46    0.73
  -5  -1   4    0.64    1.21
  -4   1   5    1.10    0.74
  -1  -5  -4    1.11    0.88
  -1   4  -5    2.63    0.69
   5  -1  -4    1.29    0.86
   5  -1  -4    1.83    0.67
   5  -4   1    1.57    0.86
   5  -4   1    1.98    0.61
   5   4  -1    1.22    0.88
   5   4  -1    1.70    0.53
   4  -5  -1    1.52    0.69
   4  -5  -1    1.45    0.95
  -5  -4   2    5.45    1.25
   5   2  -4    5.30    1.02
   5   2  -4    5.15    0.84
   4  -5   2    4.67    0.91
  -5  -4   2    6.34    0.96
  -4   2  -5    5.94    1.15
  -4  -2   5    5.71    0.93
  -4  -2   5    5.65    1.31
  -5   4  -2    4.58    0.92
  -5   2   4    6.93    1.13
  -5   2   4    7.12    0.67
   5   4   2    6.66    1.13
   4   5  -2    5.86    0.66
   5  -4  -2    4.13    0.95
   2   5   4    3.47    1.04
   4   2   5    5.77    1.06
   5  -4  -2    4.39    1.27
  -4   5   2    5.82    0.97
  -4   5   2    5.92    0.89
  -2  -4  -5    7.94    1.28
   4  -5   2    5.22    0.83
  -2  -5   4    6.21    0.89
  -2  -5   4    4.92    0.67
  -2   4   5    5.33    1.18
  -2   4   5    6.87    1.00
   2  -5  -4    3.81    0.95
   2  -4   5    2.63    1.00
   2   4  -5    4.90    0.89
   4  -2  -5    4.83    1.08
   4  -2  -5    5.22    0.96
  -5  -2  -4    5.16    1.05
   5  -2   4    5.75    0.87
   4  -5   2    4.67    0.73
  -4  -5  -2    6.73    1.18
   4   5  -2    5.77    1.05
   5  -2   4    5.89    1.19
   2  -4  -5    4.29    1.01
   5  -2  -4    7.06    1.08
   4  -5  -2    5.12    0.88
  -2  -4   5    5.84    0.92
   2  -5   4    4.52    1.04
   4  -2   5    5.60    0.90
   4  -2   5    6.04    1.11
   5   2   4    5.99    1.06
   4   2  -5    5.71    0.94
  -5  -4  -2    5.09    1.09
  -5  -4  -2    6.62    1.25
   4   5   2    4.01    1.17
   5  -4   2    5.11    0.92
   5  -4   2    5.80    0.82
   5   4  -2    5.11    0.99
   5  -2  -4    4.93    0.93
   2   4   5    5.42    1.04
   4  -5  -2    3.74    1.26
  -4  -2  -5    5.58    1.06
  -4  -5   2    3.82    1.17
  -4  -5   2    3.68    0.82
   4   2  -5    4.33    0.91
  -4   2   5    6.13    1.09
  -4   2   5    5.78    0.67
  -2  -5  -4    3.61    0.97
  -2  -4   5    4.76    0.65
  -2  -4   5    5.23    0.80
  -2   5   4    5.54    1.12
  -2   5   4    4.86    0.94
  -5   4   2    6.46    1.06
  -5   4   2    6.54    0.94
  -5  -2   4    3.95    0.81
  -5   2  -4    6.34    1.03
  -5  -2   4    5.33    1.29
   5   4   3    2.63    1.08
   5   3  -4    1.61    0.85
   5   3  -4    0.63    0.66
   5  -3   4    1.13    0.89
   5  -3   4    1.28    0.64
  -5  -3  -4    0.97    0.94
   4   5  -3    0.39    0.95
  -5  -4   3    0.80    1.21
  -5  -4   3    0.65    0.74
  -5   3   4    2.68    1.02
  -5   3   4    0.49    0.61
  -4  -5  -3   -0.32    0.85
  -4  -3   5    1.56    1.18
  -4  -3   5    0.12    0.63
  -4   5   3    1.77    1.05
  -4   5   3    1.15    0.63
  -3  -4  -5    1.21    0.78
  -3  -5   4    1.62    0.86
  -3  -5   4    1.63    0.69
  -3   4   5    2.93    1.12
  -3   4   5    0.64    0.68
   3  -5  -4    1.07    0.97
   3   4  -5    1.09    1.10
   3   4  -5    0.65    0.68
   3   5   4    1.32    1.10
   4  -3  -5    0.49    0.94
   4  -5   3    1.69    0.68
   4  -5   3    0.29    0.51
   4  -5   3   -0.24    0.77
   5  -4  -3    2.09    0.86
   4   3   5    1.96    0.97
  -5  -3   4    0.14    1.28
  -5  -4  -3   -0.93    0.85
  -5  -4  -3   -0.87    1.12
  -5  -3   4    0.93    0.77
  -5   3  -4   -0.06    0.95
  -5   4   3   -0.72    1.05
  -5   4   3    1.55    0.72
  -4  -3  -5    0.35    0.99
  -4  -5   3    1.17    1.01
  -4  -5   3    0.93    0.74
  -4   3   5    1.71    0.95
  -4   3   5    2.26    0.68
  -3  -5  -4    1.50    1.06
  -3  -4   5    2.16    1.02
  -3  -4   5    1.00    0.65
  -3   5   4    0.40    1.03
  -3   5   4    1.54    0.78
   3  -4  -5    0.21    0.97
   3  -5   4    1.03    0.93
   3   5  -4    0.74    0.65
   3   4   5    2.16    1.16
   4  -5  -3    0.26    0.86
   4  -3   5    1.66    0.70
   4  -3   5    2.26    0.90
   4   3  -5   -0.21    0.92
   4   3  -5    1.71    0.74
   4   5   3    0.74    1.06
   5  -3  -4    0.92    0.92
   5  -4   3    0.37    0.78
   5  -4   3    1.58    0.63
   5   4  -3    1.76    0.86
   5   4  -3    1.53    0.70
   5   3   4    1.08    1.02
  -5  -4  -4    1.18    1.20
  -5  -4   4    3.53    1.53
  -5  -4   4    2.83    0.86
  -5   4   4    4.34    1.27
  -5   4   4    3.41    0.82
  -4  -5  -4    3.97    1.33
  -4  -5   4    3.48    0.92
  -4  -4  -5    2.78    1.11
  -4  -4   5    3.56    1.31
  -4  -4   5    2.93    0.88
  -4   4   5    3.82    1.30
  -4   4   5    2.05    0.87
  -4   5   4    3.08    1.30
  -4   5   4    1.51    0.82
   4  -5  -4    2.01    1.06
   4  -5   4    2.84    0.98
   4  -4  -5    3.24    1.22
   4  -4   5    3.14    0.81
   4  -4   5    2.87    0.76
   4   4  -5    1.57    1.10
   4   4  -5    2.23    0.94
   4   4   5    3.28    1.25
   4   5  -4    3.55    1.23
   4   5   4    3.47    1.34
   5  -4  -4    2.24    1.08
   5  -4   4    3.29    0.91
   5  -4   4    2.23    0.75
   5   4  -4    4.04    1.15
   5   4  -4    2.71    0.83
   5   4   4    4.49    1.35
  -5  -5   0   -1.09    1.53
  -5  -5   0   -0.42    0.77
  -5   0  -5    1.16    0.97
  -5   0   5   -0.38    0.71
  -5   5   0    0.61    0.76
   0  -5  -5   -0.10    0.98
   0   5   5    1.02    1.08
   0   5   5    0.98    0.79
   5  -5   0    2.77    1.17
   5  -5   0    0.83    0.68
   5   0  -5   -0.71    0.95
   5   0  -5   -0.73    0.66
   5   0   5    0.97    0.69
   5   0   5   -0.04    1.43
   5   5   0    2.38    1.00
   5   5   0   -0.17    0.72
  -5  -5  -1    0.15    0.89
  -5  -5   1   -0.98    1.46
  -5  -5   1   -0.76    0.72
  -5  -1  -5    1.38    0.99
  -5  -1   5    0.23    0.78
  -5   1  -5   -0.28    0.93
  -5   1   5    0.20    0.82
  -5   5  -1    0.71    0.83
  -5   5   1    0.64    0.72
  -1  -5  -5   -1.70    0.95
  -1  -5   5   -0.56    1.05
  -1   5   5    0.38    1.09
  -1   5   5   -0.18    0.73
   1  -5  -5    2.28    0.97
   1   5  -5   -0.06    0.76
   1   5   5    0.90    1.07
   5  -5  -1   -0.02    1.28
   5  -5  -1    1.85    0.79
   5  -5   1   -0.29    0.95
   5  -5   1    0.26    0.62
   5  -5   1    0.79    0.81
   5  -1  -5    0.92    0.99
   5  -1  -5    0.78    0.76
   5  -1   5    0.93    0.75
   5  -1   5   -0.78    1.17
   5   1  -5    1.49    1.02
   5   1  -5    0.78    0.75
   5   1   5    1.28    0.78
   5   5  -1    0.34    0.95
   5   5  -1   -0.21    0.62
   5   5   1   -0.69    1.04
  -5  -5  -2    0.02    1.06
  -5  -5   2   -1.10    1.28
  -5  -5   2    1.63    0.81
  -5  -2  -5    0.64    1.06
  -5  -2   5    1.03    1.65
  -5   2  -5    1.10    1.16
  -5   2   5    0.90    1.02
  -5   2   5    0.18    0.50
  -5   5  -2   -0.30    0.93
  -5   5   2   -0.67    0.96
  -5   5   2    0.77    0.82
  -2  -5  -5    2.17    1.18
  -2  -5   5    0.35    0.84
  -2  -5   5   -0.12    0.59
  -2   5   5    1.14    1.22
  -2   5   5    0.94    0.75
   2  -5  -5    0.37    1.14
   2   5  -5   -0.70    0.72
   2   5   5    0.34    1.07
   5  -5  -2    0.30    0.88
   5  -5   2    0.00    0.89
   5  -5   2   -0.14    0.64
   5  -5   2   -0.64    0.71
   5  -2  -5    0.67    1.03
   5  -2  -5    1.02    0.86
   5  -2   5    1.33    0.76
   5  -2   5    2.23    1.26
   5   2  -5    1.70    1.05
   5   2  -5    0.28    0.68
   5   2   5    1.95    1.06
   5   5  -2   -1.25    0.96
   5   5  -2    0.94    0.50
   5   5   2   -0.42    1.10
  -5  -5  -3   -0.75    1.21
  -5  -5   3   -0.15    0.87
  -5  -3  -5    1.43    1.23
  -5  -3   5   -0.30    0.81
  -5   3  -5    0.80    1.32
  -5   3   5   -1.45    1.20
  -5   3   5   -0.07    0.69
  -5   5   3   -1.05    1.27
  -5   5   3    1.22    0.90
  -3  -5  -5    0.64    1.20
  -3  -5   5    0.04    1.01
  -3  -5   5    0.50    0.77
  -3   5   5    0.66    1.32
  -3   5   5   -1.26    0.79
   3  -5  -5   -1.56    1.02
   3   5  -5    0.35    0.77
   3   5   5   -0.17    1.24
   5  -5  -3    0.25    0.99
   5  -5   3    1.84    0.85
   5  -5   3   -0.35    0.63
   5  -3  -5    0.04    1.15
   5  -3  -5   -0.16    0.86
   5  -3   5   -0.14    0.76
   5   3  -5    1.59    1.10
   5   3  -5   -0.01    0.74
   5   3   5   -0.97    1.08
   5   5   3    0.65    1.26
  -5  -5  -4    2.30    1.20
  -5  -5   4    0.61    1.00
  -5  -4  -5   -0.56    1.36
  -5  -4   5    2.02    0.98
  -5   4   5    3.70    1.48
  -5   4   5   -0.15    0.87
  -5   5   4   -0.41    1.40
  -5   5   4    1.07    0.97
  -4  -5  -5    1.64    1.27
  -4  -5   5   -1.37    0.89
  -4   5   5    1.07    1.48
  -4   5   5    0.92    0.97
   4  -5  -5   -1.39    2.19
   4   5  -5    0.77    1.67
   4   5   5    0.02    1.43
   5  -5   4    0.63    0.71
   5  -4  -5   -0.62    1.26
   5  -4   5    1.76    0.86
   5   4  -5    0.13    1.18
   5   4  -5    0.78    0.94
   5   4   5    2.15    1.44
   5   5  -4    0.76    1.20
   5   5   4   -0.89    1.45
  -5  -5  -5    0.88    1.68
  -5  -5   5    1.29    1.13
  -5   5   5   -0.54    1.60
  -5   5   5    0.12    1.03
   5  -5  -5    1.31    1.50
   5  -5   5   -0.27    0.89
   5   5  -5    1.79    1.05
   5   5   5    0.15    2.14
  -6   0   0   53.64    2.26
   0  -6   0   52.12    2.16
   0  -6   0   53.05    2.07
   0   0  -6   51.80    2.22
   0   0   6   50.80    2.17
   0   0   6   49.42    2.27
   0   6   0   51.57    1.94
   0   6   0   49.20    2.09
   0   6   0   51.78    2.16
   6   0   0   55.50    2.79
   6   0   0   51.87    2.22
   6   0   0   51.28    2.06
  -6   0  -1   25.70    1.51
  -6   0   1   23.99    1.42
  -1  -6   0   26.49    1.56
  -1  -6   0   21.97    1.27
  -1   6   0   21.87    1.37
  -1   6   0   23.34    1.45
  -1   6   0   23.81    1.35
   0  -1  -6   26.15    1.59
   0  -1  -6   26.03    1.49
   0  -1   6   25.78    1.34
   0   1  -6   24.09    1.52
   0   1  -6   24.77    1.41
   0   1  -6   23.04    1.39
   0   1   6   23.82    1.43
   0   1   6   24.39    1.71
   1  -6   0   22.61    1.47
   1  -6   0   25.44    1.26
   1   6   0   23.69    1.30
   1   6   0   20.77    1.48
   1   6   0   25.69    1.36
   6   0  -1   26.05    1.53
   6   0  -1   24.70    1.22
   6   0  -1   24.44    1.06
   6   0   1   24.53    1.43
   6   0   1   23.94    1.43
  -6  -1   0   25.55    1.51
  -6   1   0   25.73    1.45
  -1   0  -6   22.88    1.35
  -1   0   6   23.25    1.42
  -1   0   6   24.68    1.64
   0  -6  -1   26.39    1.66
   0  -6  -1   24.67    1.35
   0  -6   1   25.35    1.29
   0  -6   1   26.31    1.19
   0   6  -1   25.01    1.34
   0   6   1   24.93    1.34
   0   6   1   24.91    1.37
   1   0  -6   23.31    1.43
   1   0  -6   25.92    1.50
   1   0   6   23.80    1.43
   1   0   6   21.97    1.60
   6  -1   0   26.11    1.69
   6  -1   0   23.80    1.44
   6  -1   0   23.47    1.42
   6   1   0   24.80    1.48
   1  -6  -1   12.01    0.98
   1  -6   1   10.63    0.96
   1  -6   1   11.62    0.80
   1  -1  -6   10.30    1.25
   1  -1  -6   10.93    1.12
   1  -1   6    9.78    0.93
   1  -1   6    9.36    1.41
  -1  -6   1   10.07    0.86
  -1  -1  -6   10.94    1.25
  -1  -1  -6   10.57    1.03
  -1  -1   6    9.87    0.97
  -1  -1   6    9.40    1.28
  -1   1  -6   11.00    1.27
  -1   1  -6   10.42    1.17
  -1   1  -6   10.71    0.97
  -1   1   6   10.60    1.12
  -1   1   6   11.81    1.47
  -1   6  -1   10.28    1.00
  -6   1  -1   11.59    1.13
  -6   1   1    9.21    1.04
  -1  -6  -1    9.52    1.38
  -1  -6  -1    9.59    0.94
  -1  -6   1   11.37    1.06
   6   1  -1   10.84    0.82
   6   1  -1   10.95    0.75
   6   1   1    9.79    1.07
  -1   6   1    9.92    1.01
  -1   6   1   10.39    1.03
   1  -6  -1   11.48    1.41
  -6  -1  -1   11.90    1.15
  -6  -1   1   11.76    1.13
   6  -1   1   11.37    1.17
   6   1  -1    9.93    1.07
   6  -1  -1    9.96    1.08
   6  -1  -1    9.40    0.96
   6  -1  -1   10.48    0.64
   6  -1   1    9.80    1.42
   6  -1   1   10.61    0.99
   1   6   1   11.53    1.02
   1   1   6   12.47    1.64
   1   6  -1    9.56    0.89
   1   6   1   11.47    1.08
   1   1  -6   11.76    1.07
   1   1   6   10.17    1.09
   1   1  -6   10.39    1.13
   0  -2   6   36.88    1.62
  -6  -2   0   34.66    1.62
  -6   2   0   36.02    1.76
  -2   0  -6   35.86    2.18
  -6  -2   0   37.72    1.87
  -2   6   0   36.05    1.75
   0  -2  -6   36.01    2.02
   0   6   2   35.56    1.76
  -2   6   0   35.66    1.62
  -2   6   0   33.89    1.77
   0   6   2   37.16    1.74
   0  -2   6   34.03    1.77
   2   6   0   35.08    1.69
   6   0  -2   36.65    1.87
   6   0  -2   36.77    1.53
   6   0   2   35.50    1.78
  -2  -6   0   36.09    1.70
   0  -2   6   35.34    1.73
   2   6   0   37.71    1.75
   2   0  -6   37.46    1.81
   2   0  -6   35.83    1.84
   2   0   6   35.68    1.81
   2   0   6   32.02    1.96
  -6   0  -2   38.70    1.90
  -6   0   2   37.30    1.82
  -2  -6   0   33.33    1.97
   0   2  -6   33.98    1.67
   0   2  -6   37.70    1.78
   0   2   6   37.62    1.92
   2  -6   0   35.96    1.85
   2  -6   0   37.12    1.58
   6  -2   0   35.27    1.92
   6  -2   0   37.17    1.76
   6  -2   0   37.98    1.83
   6   2   0   37.03    1.86
   0   6  -2   38.16    1.70
   0  -6  -2   34.22    2.08
   0  -6  -2   36.50    1.80
  -2   0   6   36.46    1.78
  -2   0   6   34.75    2.02
  -2   0  -6   36.50    1.66
   1  -6  -2   20.39    1.81
   2   1   6   20.32    1.39
   2   1   6   16.79    1.66
  -2  -1   6   16.64    1.53
  -1   2   6   18.31    1.46
  -2  -1   6   18.64    1.32
   6   1  -2   17.10    1.07
  -6  -1  -2   18.01    1.48
   1  -2   6   17.74    1.58
   1   2  -6   18.37    1.41
  -1  -6   2   17.77    1.06
  -1  -6   2   19.48    1.01
  -1   6  -2   19.17    1.27
   2   6  -1   17.70    1.19
   6  -1   2   14.72    1.58
   6  -1   2   19.04    1.24
   2  -6   1   18.08    1.29
  -6  -2   1   18.69    1.34
  -6  -2   1   17.79    1.37
  -6   2  -1   18.15    1.31
   2   6  -1   18.56    1.20
   1  -2   6   18.54    1.11
   1  -2   6   16.77    1.32
   1  -6  -2   18.57    1.30
  -2   6   1   18.36    1.21
  -2   1  -6   19.47    1.41
  -2   1  -6   19.76    1.18
   1   2  -6   19.63    1.30
   2  -1  -6   19.07    1.38
   6   1  -2   19.95    1.46
   1   6   2   19.04    1.34
  -6   1   2   17.68    1.26
  -2  -6  -1   17.37    1.71
  -2  -6  -1   18.56    1.26
   6   2   1   18.27    1.39
   6  -2  -1   18.82    0.89
   2  -6   1   19.56    1.01
  -2   6   1   18.13    1.22
   6  -2  -1   16.97    1.24
  -1  -2  -6   18.20    1.56
   2  -1  -6   17.62    1.47
   6  -2  -1   16.32    1.27
   1   6   2   18.97    1.25
   1   2  -6   19.80    1.22
  -6   1  -2   20.28    1.36
   2   1  -6   17.01    1.29
   1  -2  -6   18.46    1.61
  -1   2  -6   14.63    1.21
  -1  -2   6   19.17    1.38
  -1  -2   6   18.65    1.23
  -1   2  -6   17.44    1.16
  -2  -6   1   19.93    1.16
   2  -1   6   21.22    2.52
  -2  -1  -6   20.96    1.50
   1   6  -2   19.85    1.18
  -1   2  -6   17.40    1.21
  -1  -2   6   18.61    1.15
  -2   1   6   17.68    1.75
  -2   6  -1   17.31    1.23
  -6   2   1   18.04    1.26
  -1   6   2   19.33    1.28
   2   1  -6   14.71    1.36
   2   6   1   19.86    1.25
   6  -1  -2   20.16    1.35
   6  -1  -2   18.57    1.11
   6  -1  -2   17.96    1.01
  -1   6   2   19.47    1.27
  -6  -2  -1   18.48    1.41
  -6  -1   2   18.40    1.31
   2  -1   6   18.55    1.24
   6   1   2   18.51    1.34
   6  -2   1   18.62    1.20
   6   2  -1   17.55    1.40
  -2  -6   1   16.24    1.35
   2  -6  -1   17.31    1.60
  -2  -1  -6   18.44    1.23
  -1  -6  -2   16.52    1.73
  -1  -6  -2   18.42    1.33
   2   6   1   16.88    1.26
  -2   1   6   20.27    1.39
   1   2   6   17.33    1.43
   1   2   6   15.07    1.78
   6  -2   1   17.37    1.50
   2  -6  -1   18.34    1.18
  -6  -2  -1   16.88    1.10
  -6  -2  -2   26.03    1.75
  -2   2   6   25.39    1.70
  -2   6  -2   26.71    1.49
  -2   6   2   25.49    1.43
  -2   2  -6   26.78    1.41
   2  -6  -2   23.54    1.96
   2  -6  -2   24.66    1.49
   2  -2  -6   24.50    1.81
   2  -2   6   25.35    1.37
   2  -2   6   23.59    1.57
   2   2  -6   25.61    1.52
   2   2  -6   26.91    1.58
   2   2   6   25.82    1.67
   2   6  -2   24.48    1.34
   2   6   2   25.59    1.65
   2   6   2   25.72    1.50
  -2  -6   2   22.94    1.37
  -2  -6   2   26.84    1.32
  -2  -2  -6   31.77    1.89
  -2  -2   6   26.08    1.40
  -2   2  -6   21.26    1.38
  -2   6   2   26.12    1.53
   6  -2  -2   22.85    1.42
   6  -2  -2   25.09    1.24
   6  -2   2   22.64    1.77
   6  -2   2   25.92    1.43
   6   2  -2   25.84    1.66
   6   2  -2   25.28    1.35
   6   2   2   28.34    1.65
  -6   2   2   26.54    1.52
  -2  -6  -2   24.84    2.06
  -2  -6  -2   25.15    1.53
  -6  -2   2   27.46    1.57
  -6   2  -2   27.93    1.51
   6  -2  -2   27.44    1.56
   3   6   0   11.22    1.03
   6   0  -3   12.33    1.27
   3   6   0   11.25    1.47
   6   0   3   11.19    1.12
   6   0   3   11.88    1.74
   3  -6   0   10.39    1.34
   3  -6   0   10.84    0.98
   6  -3   0   10.15    1.04
   6   3   0   11.49    1.38
   0   3   6   11.75    1.40
  -6  -3   0   12.79    1.26
  -6  -3   0    8.36    1.29
  -6   3   0   10.46    1.10
  -3   0  -6   11.94    1.38
  -3   0  -6   10.34    0.99
  -3   0   6   12.24    1.21
  -3   0   6   12.83    1.60
  -6   0  -3   12.96    1.35
  -6   0   3   10.58    1.09
  -3  -6   0   11.26    1.57
  -3  -6   0   10.68    1.09
  -3   6   0    8.83    1.08
   0  -3  -6   12.18    1.50
   0  -3   6   11.62    0.86
   0  -3   6   10.49    1.15
   6   0  -3   11.71    1.02
   3   0  -6   12.16    1.15
   3   0   6    9.67    1.19
   0  -6  -3   13.09    1.25
   0   6  -3    9.87    1.01
   0   6   3   12.97    1.37
   0   6   3   11.21    1.15
   3   0   6    9.97    1.59
   0  -6  -3   11.81    1.79
   3   0  -6   12.67    1.33
   0   3  -6   11.28    1.06
   0  -3   6   12.63    1.37
   6  -3   0   10.02    1.42
   3   6  -1    8.01    1.15
  -3  -6  -1    5.37    0.93
  -3  -1   6    6.23    0.95
   1   6   3    8.21    1.29
   1   6   3    6.49    1.01
   6  -1   3    6.93    1.00
   6   1  -3    7.41    1.18
   3   1   6    4.71    1.46
   3   6  -1    6.08    0.86
   3  -6   1    5.31    0.80
   3  -6   1    6.60    1.03
  -3   1  -6    6.71    0.91
   3   1   6    8.47    1.28
  -3  -1   6    6.15    1.37
  -3   1  -6    7.34    1.17
   1  -6  -3    7.48    1.67
  -1   3   6    4.97    1.12
   6  -3  -1    6.78    1.27
   6  -3  -1    6.30    0.93
   6  -3  -1    5.61    0.65
   1  -3   6    5.85    0.96
   1   3  -6    5.19    0.89
   3  -1  -6    6.00    1.00
  -6  -3   1    6.26    1.09
   1  -6  -3    4.56    0.95
  -6   3  -1    7.96    1.07
  -3   6   1    7.49    1.04
  -3   6   1    6.80    1.07
  -1  -3  -6    5.15    1.21
  -1   6  -3    7.05    1.00
  -6  -1  -3    6.72    1.22
   6   3   1    6.58    1.07
   1  -3   6    5.85    0.76
   6   1  -3    6.42    0.88
  -6  -3   1    5.45    1.20
  -3  -6  -1    4.90    1.48
   3  -1  -6    7.61    1.23
   6   3  -1    9.45    1.27
   3   1  -6    7.93    1.03
   3  -6  -1    5.75    1.25
  -3  -1  -6    7.28    1.26
  -6  -3  -1    6.09    1.03
   3   6   1    6.10    0.93
  -1  -3   6    6.23    1.04
  -1  -3   6    6.09    0.99
  -6  -3  -1    8.42    1.27
  -3   1   6    5.97    1.22
  -3   1   6    6.19    0.69
  -1  -6  -3    7.92    1.73
  -1  -6  -3    3.59    0.96
  -6  -1   3    6.40    0.97
  -1   6   3    6.00    1.21
  -1   6   3    7.02    1.03
  -1   3  -6    6.74    0.94
   3  -6  -1    6.06    0.95
   1   6  -3    5.93    0.93
   6  -1  -3    7.41    1.13
   6  -1  -3    6.52    0.85
  -3  -1  -6    6.30    0.88
   1   3   6    7.26    1.25
   3  -1   6    6.14    1.00
   3  -1   6    7.86    1.36
   3   1  -6    5.99    1.03
   1  -3  -6    5.51    1.27
  -3  -6   1    6.39    0.99
  -3   6  -1    7.69    1.14
   6  -3   1    8.30    1.38
   6  -3   1    6.93    0.95
  -6   1  -3    9.43    1.28
  -6   3   1    8.30    1.17
   3   6   1    6.66    1.04
  -3  -6   1    5.42    1.20
   6   1   3    7.42    1.12
  -1  -3   6    5.53    0.79
   2  -3   6    9.16    0.87
   3   2   6   10.04    1.31
  -3   6   2    8.05    1.16
  -6  -3   2    7.46    1.13
  -2  -3  -6   11.74    1.64
   6   3   2    9.56    1.31
  -6   3  -2   10.25    1.27
   2   6   3    8.63    1.15
  -2   3   6   10.51    1.40
  -2   3   6   11.14    1.08
  -3  -6  -2    6.16    1.61
  -3  -6  -2    9.33    1.18
   2  -3   6    9.03    1.08
   2   3  -6    9.13    1.07
  -2  -6   3    5.80    0.96
  -2  -6   3    8.32    0.90
  -3   6   2    6.60    1.01
  -6  -2  -3   10.18    1.43
   3  -6   2    8.68    0.73
   3   6  -2   11.09    0.96
   2  -6  -3   10.68    1.73
   2  -6  -3    9.51    1.22
  -3  -2   6    7.94    1.02
   2   6   3    8.80    1.32
   6  -2   3    8.92    1.46
   6  -2   3    7.67    1.02
   6   2  -3   10.41    1.40
   6   2  -3    9.69    1.02
  -3  -2   6    9.15    1.35
  -3   2  -6    9.82    1.01
   3  -2  -6    7.82    1.15
   3  -2  -6   11.09    1.53
   6  -3  -2    8.33    1.14
   6  -3  -2    7.74    1.10
   6  -3  -2    7.60    0.91
   3  -6   2    7.64    1.11
   6  -2  -3    8.06    1.23
   2  -3  -6    9.89    1.57
  -3  -6   2    7.26    1.04
  -3   2   6    7.30    0.87
  -2  -6  -3    7.51    1.09
  -2   6   3   10.21    1.45
   6   2   3    8.22    1.29
   3   6   2    9.06    1.44
   3   6   2    8.44    1.04
  -2  -3   6   10.27    0.95
   6  -2  -3    8.20    0.97
  -2   3  -6    8.76    1.08
  -6  -2   3    8.41    1.11
  -3   2   6    9.66    1.34
   3  -2   6    8.28    1.06
   3  -2   6    9.35    1.29
   3   2  -6    8.88    1.31
   3   2  -6    7.78    0.99
  -3   6  -2    9.60    1.10
  -6   2  -3    7.69    1.10
  -6  -3  -2    8.36    1.36
  -6  -3  -2    8.59    1.09
   6  -3   2    7.90    1.30
   6  -3   2    9.02    0.97
   6   3  -2   11.27    1.40
  -3  -6   2   10.04    1.29
   2   3   6    8.21    1.27
   3  -6  -2    6.59    1.38
   3  -6  -2    8.48    1.14
  -2   6   3   11.14    1.14
   2   6  -3    9.21    0.98
  -3  -2  -6   12.35    1.69
  -2  -3   6    8.54    1.31
  -6  -3   3    4.38    1.05
  -6  -3  -3    3.14    1.05
  -6  -3  -3    3.55    1.11
  -3   3   6    3.87    0.80
  -3  -6   3    3.65    0.99
  -3  -6   3    3.16    0.84
  -3   3  -6    2.62    0.79
  -3   3   6    5.98    1.28
  -3   6   3    2.99    1.12
  -3   6   3    4.14    0.98
   3  -6  -3    4.12    1.00
   3  -3  -6    2.54    1.21
   3  -3   6    5.00    0.86
   3  -3   6    2.21    0.93
   3   3  -6    3.76    1.13
   3   3  -6    2.51    0.82
   3   3   6    3.31    1.12
   3   6  -3    2.95    0.73
   3   6   3    4.77    1.29
   6  -3  -3    3.33    1.03
   6  -3  -3    4.22    0.88
   6  -3   3    2.34    1.15
   6  -3   3    5.27    0.94
   6   3  -3    3.24    1.17
   6   3  -3    2.63    0.77
   6   3   3    6.30    1.45
  -3  -6  -3    3.84    0.90
  -3  -3  -6    5.72    1.42
  -3  -3   6    5.15    1.27
  -6   3   3    4.75    1.33
  -6   3  -3    4.76    1.05
   4  -6   0   12.77    1.54
   0   4   6   11.20    1.62
  -4   0   6   12.72    1.29
   0  -6  -4   12.61    1.48
  -6   0  -4   13.99    1.50
  -4  -6   0   12.54    1.69
  -4  -6   0   15.67    1.38
   6   4   0   16.25    1.65
  -4   6   0   12.95    1.22
   0  -4  -6   12.23    1.69
  -4   0  -6   14.86    1.61
  -4   0  -6   15.53    1.05
   6   0  -4   15.56    1.55
   6   0  -4   14.90    1.22
   6   0   4   11.05    1.30
  -6  -4   0   13.17    1.44
  -6   4   0   13.00    1.21
  -4   6   0   12.78    1.18
   4   0   6   12.08    1.89
   6  -4   0   15.93    1.69
   6  -4   0   12.96    1.16
   4   6   0   13.06    1.26
   4   0   6   15.14    1.33
   4  -6   0   15.28    1.17
   4   6   0   12.72    1.38
   4   0  -6   11.69    1.55
   4   0  -6   13.30    1.35
   0   4  -6   10.36    1.19
   0   6   4   13.92    1.81
   0   6   4   13.77    1.30
   6   1  -4    9.77    1.10
   6  -1   4    8.30    1.15
   6  -1   4   10.84    1.63
  -4   6   1    9.57    1.19
  -4   1  -6    8.53    0.96
   4   6  -1    9.79    1.48
   4   6  -1    8.34    1.11
   1   4  -6    6.77    1.15
  -4  -1   6    8.22    1.15
  -4  -1   6    7.72    1.57
  -6  -4   1   10.58    1.30
  -6   4  -1    8.09    1.09
   4  -1  -6    8.38    1.36
   1   6   4    9.43    1.22
   6  -4  -1    5.61    2.31
   6   4   1   11.17    1.55
  -4   6   1   11.05    1.52
  -4   1  -6   12.46    1.49
   4   1   6    8.17    1.25
   4  -6   1    8.29    1.37
  -6  -1  -4   10.69    1.48
   1  -6  -4    7.18    1.23
  -1   4   6   11.26    1.57
  -4  -6  -1    6.51    1.70
  -4  -6  -1    9.26    1.27
  -1   4   6    9.37    1.24
   4  -1  -6    7.74    1.23
   6  -4  -1    7.82    1.11
   1   6   4   10.00    1.69
   6   1  -4   10.30    1.41
   4  -6   1    9.72    0.98
   4  -6   1    8.57    1.43
  -1  -4  -6    9.06    1.40
  -1   6   4   11.06    1.47
   6  -4   1    8.77    1.33
   1  -4  -6    8.92    1.45
  -4  -6   1   10.82    1.52
   4   1  -6    9.20    1.18
  -6   1  -4    8.62    1.28
   6   1   4    9.56    1.31
  -4  -6   1    9.69    1.23
  -1   6   4    9.20    1.20
   4  -1   6    9.07    1.18
  -1  -4   6    9.46    1.40
  -1   4  -6    9.19    1.16
   6  -4   1    7.49    1.04
   6   4  -1   10.52    1.60
   6   4  -1    8.36    0.97
  -4  -1  -6    8.47    1.01
  -4   1   6    9.44    1.29
  -4  -1  -6   10.18    1.48
   4   6   1    9.63    1.51
   4   6   1    9.10    1.27
   6  -1  -4    9.73    1.34
  -4   6  -1    7.79    1.12
  -1  -4   6    7.96    1.14
  -6  -4  -1   10.69    1.59
  -1  -6  -4    8.84    1.40
  -6  -4  -1   11.98    1.44
  -6   4   1    8.95    1.24
   6  -1  -4    7.80    1.11
  -6  -1   4    8.34    1.15
   4  -6  -1    9.80    1.13
   4  -6  -1   11.37    1.62
   4  -1   6    9.48    1.53
   4   1  -6    8.79    1.33
   1   4   6   11.22    1.62
  -4  -2   6   12.68    1.85
  -2   4   6    9.54    1.24
  -2   4   6   12.45    1.85
   4  -6   2    9.16    1.31
  -4   2  -6   12.76    1.53
  -6  -4   2    9.25    1.29
   4   2   6   12.16    1.49
   6  -4  -2    9.98    1.30
  -2  -4  -6   11.70    1.78
  -6  -2  -4   14.13    1.77
  -4  -6  -2    9.04    1.36
   2   6   4   13.14    1.93
   2   6   4    9.30    1.15
   6  -2   4    9.49    1.09
   6   2  -4   12.57    1.54
   6   2  -4    8.74    1.19
   4  -6   2   10.63    0.93
   4  -6   2    9.89    1.25
  -4   6   2   12.79    1.46
  -4   6   2   11.02    1.23
  -4   2  -6    9.11    0.93
   4   6  -2    7.92    1.03
  -6   2   4   10.41    1.51
   2   4  -6    9.03    1.17
   4   6  -2   11.31    1.50
   4  -2  -6    8.57    1.29
  -4  -2   6    8.50    1.21
   2  -6  -4   10.26    1.43
   4  -2  -6    9.64    1.45
  -6   4  -2    9.75    1.32
   4  -6  -2    8.81    1.24
  -4   2   6    9.81    0.94
   6   2   4   10.11    1.50
   4   2  -6    9.99    1.44
   4   2  -6    9.24    1.22
  -4  -2  -6   12.66    1.80
  -2   4  -6    9.36    1.22
   6  -2  -4    8.37    1.17
   6  -4   2    9.38    1.07
   6   4  -2   13.40    1.64
  -4  -6   2    8.37    1.22
  -4  -6   2   11.93    1.49
  -6  -4  -2   11.39    1.61
   2   4   6   10.18    1.54
  -2  -4   6    9.10    1.34
   4   6   2   12.49    1.71
   4   6   2   10.40    1.22
   6  -2  -4   10.17    1.53
  -4   2   6   11.68    1.51
   4  -2   6    8.77    1.21
  -2  -6  -4    9.04    1.36
  -2  -4   6    8.93    1.01
   4  -6  -2    9.69    1.71
  -6  -2   4   11.63    1.22
  -6   2  -4   10.74    1.65
  -6  -4  -2    6.88    1.41
  -2   6   4   12.80    1.83
  -2   6   4    9.77    1.30
   2  -4  -6    9.39    1.54
   6  -4   2    8.52    1.33
   4  -3  -6    4.24    1.43
   3   4  -6    2.77    0.97
  -6   3   4    6.80    1.45
  -3   4   6    3.93    0.98
   6   3  -4    4.86    1.05
  -3  -6   4    4.09    1.22
  -4   6   3    5.49    1.31
  -4   6   3    4.67    0.99
   6  -3   4    5.77    1.05
   6   3  -4    6.79    1.45
   3   6   4    6.72    1.68
  -3  -4  -6    4.36    1.44
  -6  -4   3    4.46    1.11
   4   3   6    4.47    1.33
   6  -4  -3    5.70    1.18
  -4  -6  -3    5.67    1.23
  -6   4  -3    5.07    1.15
   4  -3  -6    4.11    1.10
  -6  -3  -4    7.07    1.53
  -3   4   6    7.70    1.58
   4   6  -3    5.19    0.80
  -3  -6   4    4.25    0.90
   3  -6  -4    4.26    1.26
   6   4   3    5.91    1.47
   6   3   4    7.16    1.34
  -3  -4   6    4.12    0.90
   3  -4  -6    3.30    1.37
  -6   3  -4    6.19    1.31
  -6  -4  -3    5.64    1.35
  -4  -6   3    5.41    1.08
  -4   3   6    3.87    1.31
  -3   6   4    5.05    1.19
   6  -3  -4    7.12    1.34
  -6   4   3    5.53    1.53
  -6   4   3    4.47    0.95
  -4  -3  -6    4.04    1.45
   3   4   6    4.45    1.32
   4  -3   6    3.82    0.95
   4   3  -6    3.56    1.23
   6   4  -3    5.77    1.34
  -3  -6  -4    3.61    1.07
   4   6   3    6.98    1.69
   4   3  -6    3.91    0.89
  -6  -3   4    5.84    1.11
  -4   3   6    5.54    0.95
   6  -4   3    6.75    1.00
   6  -3  -4    3.54    1.05
   4  -6  -3    4.26    1.09
  -3   6   4    6.22    1.42
  -4   4   6    5.86    1.72
   6   4  -4    4.70    1.06
   6   4   4    6.65    1.58
  -4  -4  -6    5.37    1.65
   4  -6  -4    3.60    1.32
  -6  -4  -4    4.38    1.50
  -4  -6   4    5.45    1.12
  -4   4   6    4.14    1.13
  -4  -4   6    4.32    1.01
  -4   6   4    5.40    1.01
  -6   4   4    9.73    1.73
   6   4  -4    5.47    1.49
   4  -4  -6    6.21    1.67
   4   4  -6    3.24    1.04
   4   6   4    7.78    1.87
   6  -4  -4    3.12    1.58
   6  -4   4    3.44    0.94
  -6   4   4    4.14    1.04
  -4  -6  -4    5.35    2.26
  -4   6   4    6.96    1.72
  -5   0  -6    3.06    1.51
   5   0  -6    2.10    1.28
   6  -5   0    3.73    0.93
   0   5   6    4.54    1.21
   5  -6   0    3.11    0.98
   5   6   0    3.05    1.38
   6   5   0    5.60    1.62
  -6  -5   0    4.58    1.16
  -6   5   0    3.37    0.96
   6   0   5    3.84    1.04
   6   5   0    2.87    1.07
   0   6   5    2.55    1.02
   0   5   6    3.27    1.46
   5   0  -6    3.71    0.99
   5   0   6    5.07    1.05
  -5   6   0    2.53    1.00
  -5   6   0    1.71    0.91
   6   0  -5    3.06    1.33
   5   6   0    3.88    0.97
  -6   0  -5    5.33    1.40
  -5   0   6    4.29    1.16
   0  -6  -5    3.45    1.28
   0   6   5    3.91    1.57
   0  -5  -6    2.53    1.32
   0   5  -6    3.77    1.02
   6   0  -5    3.50    1.00
  -5  -6   0    4.03    1.08
   1   6   5    4.39    1.52
   6   1  -5    1.76    1.23
   5   1   6    2.78    1.09
   1  -6  -5    0.55    1.14
  -6  -1  -5    0.40    1.21
   6   1  -5    0.92    0.90
  -1   5   6    0.33    0.99
   6  -1   5    2.45    0.89
   1   5  -6    1.71    0.92
   5   6  -1    3.03    0.89
  -6  -5   1    2.60    1.16
   5  -6   1    1.93    0.86
   5   6  -1    1.14    1.28
  -6   1   5    2.13    1.17
  -5  -1   6    2.52    1.03
  -5   1  -6    3.58    1.45
  -5   6   1    3.20    1.00
  -1  -5  -6    3.29    1.33
  -1   5   6    1.70    1.49
   5  -1  -6    1.25    0.90
   6   5   1    0.31    1.38
   6  -5  -1    2.48    0.93
  -6   5  -1    0.82    0.98
   1   6   5    2.30    1.13
   5  -1  -6    2.84    1.31
  -5  -6  -1    0.82    1.18
   5  -1   6    0.04    0.86
   5   1  -6    3.60    1.41
  -6   1  -5    3.45    1.38
   6   1   5    0.98    1.05
  -6   5   1    2.99    1.04
  -1   6   5    0.45    1.54
   1   5   6    5.17    1.57
   6  -1  -5    1.54    1.28
   6  -1  -5    2.09    0.89
  -1  -6  -5    2.28    1.30
   6   5  -1    0.80    0.76
  -1   6   5    2.47    1.07
  -6  -5  -1    2.31    1.19
  -5   1   6    1.54    1.07
   5  -6  -1    1.73    0.93
   5   1  -6    2.53    0.94
  -5  -6   1    2.81    1.09
  -5  -1  -6   -0.36    1.37
   5   6   1    1.80    1.45
   5   6   1    3.54    1.07
   6  -5   1    1.39    0.86
   1  -5  -6    3.27    1.33
   6   5  -1    3.24    1.40
   2  -6  -5    2.62    2.06
  -6   2   5    2.96    1.32
  -5  -6  -2    4.05    2.57
   2   6   5    4.91    1.69
   2   5  -6    2.72    1.12
  -5   6   2    3.09    0.97
  -2  -5  -6    1.79    1.30
   6   2  -5    2.37    0.89
   5   2   6    2.22    2.49
   6  -2   5    3.24    1.00
   6   2  -5    3.60    1.39
   5   6  -2    1.91    0.77
  -6  -5   2    4.44    1.40
  -2   5   6    4.19    1.73
  -2   5   6    3.50    1.13
   5  -2  -6    3.63    1.43
   5  -2  -6    3.66    1.16
  -6  -2  -5    2.58    1.56
   6   5   2    3.59    1.67
   5  -6   2    1.50    0.80
   5   6  -2    1.01    1.53
   6   2   5    3.98    1.74
   5   6   2    4.93    1.67
  -5  -2  -6    2.29    1.64
   2   5   6    3.85    1.50
   5  -6  -2    2.70    1.20
  -2   6   5    4.47    1.65
  -6   2  -5    3.32    1.33
   5  -2   6    2.24    1.00
   5   2  -6    4.13    1.42
   5   2  -6    1.97    0.97
  -2  -6  -5    4.73    1.42
  -5  -6   2    2.95    1.18
  -5   2   6    4.48    1.27
  -2   6   5    2.51    1.13
   6  -2  -5    2.59    1.36
   6  -5   2    2.04    0.87
   6   5  -2    3.86    1.51
  -6  -5  -2    2.41    1.48
   2  -5  -6    3.08    1.42
   6  -2  -5    1.85    0.96
  -2  -5   6    1.66    1.22
  -5   6   3   -0.68    1.58
   5  -6   3    0.95    0.75
   6   3  -5    1.38    1.42
   6   3  -5   -2.67    1.53
  -3   5   6    0.69    1.16
   3  -6  -5    1.27    1.34
   3   6   5    0.33    1.76
  -6  -5   3    0.62    1.20
  -3  -5  -6   -1.44    1.55
   6  -3   5    1.67    0.98
  -3   5   6    0.13    1.66
   6   5   3   -0.44    1.67
   5  -3  -6   -1.32    1.43
  -6   3   5    2.18    1.75
  -5  -6  -3   -0.02    1.53
   6  -5  -3    2.12    1.32
  -5  -3   6    1.29    1.32
  -5   6   3   -0.19    1.06
  -6  -3  -5    4.72    1.73
  -3  -6   5    2.27    0.94
   5   3   6    0.75    1.44
   3   5  -6    2.47    1.08
   6  -5   3    0.38    0.80
   6  -3  -5    0.97    1.73
   6  -3  -5    0.70    0.99
  -5  -3  -6   -0.79    1.69
  -6   5   3    2.44    1.74
  -6   5   3    2.44    1.03
  -5  -6   3    0.62    1.80
   6   3   5    2.70    1.62
  -5   3   6   -0.57    0.81
  -3  -6  -5    0.75    1.70
  -3  -5   6    0.93    0.96
  -3   6   5    1.43    1.59
  -3   6   5    2.72    1.14
   3  -5  -6    0.09    2.21
  -6  -3   5    1.50    1.26
   3   5   6    0.21    1.85
   5  -6  -3    2.27    1.18
   6   5  -3    2.89    1.42
  -6  -5  -3    0.28    1.48
   5  -3   6    2.40    1.01
   5   3  -6    0.70    1.28
   5   3  -6    1.64    1.08
   5   6   3    1.52    1.80
   4   6   5    0.91    3.47
  -5  -4   6    1.65    1.18
  -5  -6  -4    2.10    1.66
  -4  -6   5    3.38    1.15
   5   4   6    2.70    1.76
   6  -4   5    4.10    1.62
   6   4  -5   -0.43    1.10
   4  -6  -5    0.93    1.56
   4   5  -6    0.84    1.22
  -5   6   4    1.11    1.86
  -4  -5  -6    0.05    1.62
  -4   5   6   -0.97    1.24
  -6  -4  -5    2.80    2.44
   5  -4  -6    3.64    1.69
  -6   4   5    0.55    1.09
   6  -5  -4    4.04    1.74
   5  -4  -6   -0.79    1.15
   6   5   4    1.82    2.21
  -6   5   4   -0.43    1.73
   5  -6  -4   -0.72    1.48
  -5  -4  -6   -1.78    3.06
  -5  -6   4    2.96    1.22
  -6  -5  -4   -1.87    1.79
  -5   4   6    2.27    1.12
  -4  -6  -5    4.15    1.68
   5   6   4    2.87    2.07
  -4   6   5    2.88    1.86
   6   4   5    3.51    1.81
   4  -5  -6    2.15    1.68
  -6  -4   5    1.91    1.44
  -5   4   6    4.67    1.93
   5  -4   6    1.49    1.06
   5   4  -6    3.15    1.18
   6  -4  -5    1.30    1.56
   4   5   6    4.48    1.88
   6  -5   4    2.30    0.93
  -6   5   4    2.38    1.28
  -6  -5  -5    0.39    2.03
  -6  -5   5    2.16    1.60
  -6   5   5    3.67    2.40
  -6   5   5   -0.37    1.36
  -5  -6  -5    1.99    2.10
  -5  -6   5    0.90    1.38
  -5  -5  -6   -3.01    2.16
  -5  -5   6    3.60    1.41
  -5   5   6    4.30    2.04
  -5   5   6    0.91    1.40
  -5   6   5    2.58    2.65
  -5   6   5   -1.73    1.31
   5  -6  -5   -0.86    2.03
   5  -5  -6    2.94    2.15
   5   5  -6    1.20    1.36
   5   5   6   -1.71    2.19
   5   6   5    3.88    2.25
   6  -5  -5    2.55    2.04
   6  -5   5    0.32    1.55
   6   5   5    1.58    2.37
  -6  -6   0    5.56    1.47
  -6   0  -6    3.33    1.79
  -6   0   6    4.14    1.55
   0  -6  -6    5.61    1.62
   0   6   6    1.66    1.87
   0   6   6    3.87    1.47
   6  -6   0    4.38    1.20
   6   0  -6    5.94    2.68
   6   0   6    5.18    1.33
   6   6   0    5.07    1.79
   6   6   0    3.95    1.26
  -6  -6  -1    2.70    1.51
  -6  -6   1    5.58    1.53
  -6  -1  -6    4.45    1.86
  -6   1  -6    5.80    2.27
  -6   1   6    2.50    1.44
  -6   6   1    2.35    1.26
  -1  -6  -6    4.51    1.78
  -1   6   6    2.80    1.73
  -1   6   6    7.47    1.53
   1  -6  -6    3.41    1.56
   1   6   6    2.32    1.75
   1   6   6    3.88    1.50
   6  -6  -1    2.18    1.10
   6  -1  -6    1.10    1.48
   6  -1  -6    4.62    2.37
   6  -1   6    4.11    1.34
   6   1  -6    4.70    1.67
   6   1  -6    3.83    1.13
   6   1   6    2.15    1.37
   6   6  -1    4.51    1.77
   6   6  -1    4.41    1.08
   6   6   1    3.70    2.05
   6   6   1    1.73    1.37
  -6  -6  -2    6.11    2.01
  -6  -6   2    3.74    1.59
  -6  -2  -6    3.04    2.00
  -6  -2   6    1.91    1.43
  -6   2   6    2.58    1.97
  -6   6   2    3.70    1.38
  -2  -6  -6    1.82    1.62
  -2   6   6    4.50    2.09
  -2   6   6    2.65    1.38
   2  -6  -6    5.82    1.74
   2   6   6    2.70    3.36
   6  -6  -2    0.87    1.30
   6  -2  -6   -1.28    1.76
   6  -2  -6    1.57    1.13
   6  -2   6    2.13    1.20
   6   2  -6    1.92    1.68
   6   2  -6    1.88    1.10
   6   2   6    1.87    1.52
   6   6   2    6.69    2.18
  -6  -6  -3    2.40    1.78
  -6  -6   3    3.26    1.60
  -6  -3  -6    5.45    2.15
  -6  -3   6    1.17    1.49
  -6   3   6    0.74    1.66
  -6   6   3    2.58    1.30
  -3  -6  -6    2.50    1.90
  -3   6   6    4.76    4.18
  -3   6   6   -1.11    1.32
   3  -6  -6    1.31    1.91
   3   6   6    3.63    2.19
   6  -6  -3    3.76    1.48
   6  -3  -6    1.06    1.90
   6  -3  -6    3.21    1.40
   6  -3   6    2.16    1.23
   6   3  -6    0.90    1.17
   6   3   6    3.39    1.73
   6   6   3    1.71    2.33
  -6  -6  -4    4.49    2.46
  -6  -6   4    1.40    1.63
  -6  -4  -6   -0.84    2.29
  -6  -4   6    1.20    1.63
  -6   4   6    0.07    2.01
  -6   6   4   -0.48    2.27
  -6   6   4   -0.96    1.47
  -4  -6  -6    0.60    2.24
  -4  -6   6    3.98    1.42
  -4   6   6    0.21    2.59
  -4   6   6   -1.04    1.63
   4  -6  -6    1.00    2.20
   4   6   6   -3.15    2.18
   6  -6  -4    0.79    1.64
   6  -4  -6    1.56    1.98
   6  -4  -6    0.44    1.41
   6  -4   6    1.42    1.27
   6   4  -6    2.46    1.46
   6   4   6    3.47    2.41
   6   6   4    1.76    2.25
  -6  -6  -5    0.52    2.83
  -6  -6   5    3.15    1.79
  -6  -5  -6   -2.61    2.81
  -6  -5   6   -0.64    1.82
  -6   5   6    2.41    2.63
  -6   6   5    4.17    3.27
  -6   6   5    5.85    1.93
  -5  -6  -6    1.31    2.75
  -5  -6   6    1.95    1.73
  -5   6   6    3.13    2.59
  -5   6   6    0.13    1.75
   5  -6  -6    0.88    2.35
   5   6   6    1.32    2.89
   6  -6  -5    0.24    2.05
   6  -5  -6   -0.67    2.49
   6  -5  -6   -1.56    1.65
   6   5  -6    0.39    1.69
   6   5   6    1.85    2.75
   6   6   5    2.87    3.09
  -6  -6   6    0.74    2.02
  -6   6   6    4.78    3.18
   6  -6  -6    5.07    2.92
   6   6   6    5.51    2.91
  -7   0   0    0.05    0.88
   0  -7   0    0.71    1.10
   0  -7   0    1.22    0.78
   0   0  -7    0.69    0.93
   0   0  -7    1.42    0.80
   0   0   7    0.89    0.79
   0   0   7   -0.08    1.36
   0   7   0    1.04    0.75
   7   0   0    1.01    0.84
   7   0   0   -0.81    0.89
  -7   0  -1   -0.74    0.87
  -7   0   1    0.62    0.82
  -1  -7   0    0.08    1.24
  -1  -7   0   -0.49    0.78
  -1   7   0    0.13    0.82
  -1   7   0    0.56    1.15
  -1   7   0    0.84    0.83
   0  -1  -7    0.63    1.10
   0  -1  -7    0.70    0.75
   0  -1   7    1.31    0.81
   0  -1   7   -0.11    1.21
   0   1  -7    1.08    1.02
   0   1  -7    1.45    0.77
   0   1   7    2.10    0.93
   0   1   7    1.69    1.49
   1  -7   0    0.30    1.09
   1  -7   0    1.09    0.75
   1   7   0    0.43    0.86
   1   7   0    0.89    0.73
   7   0  -1   -0.81    0.78
   7   0  -1    0.81    0.80
   7   0  -1   -0.41    0.42
   7   0   1    0.74    0.83
   1   0   7   -0.17    1.21
  -7  -1   0    1.83    0.92
  -7   1   0    0.60    0.91
  -1   0  -7    0.39    0.96
  -1   0  -7    1.56    0.76
  -1   0   7    1.73    0.84
  -1   0   7    0.19    1.31
   0  -7  -1    1.36    1.27
   0  -7  -1    0.72    0.78
   0  -7   1   -0.37    0.89
   0  -7   1    2.25    0.72
   0   7  -1   -0.33    0.66
   0   7   1    0.06    0.92
   0   7   1    1.50    0.77
   1   0  -7    0.29    0.97
   1   0  -7    1.37    0.77
   1   0   7    1.45    0.88
   7   1   0   -0.36    0.85
   7  -1   0    0.12    0.85
   7   1   0    0.17    0.88
   1   1  -7    1.66    0.83
   1  -7   1    1.64    0.69
   1  -1  -7    1.57    1.09
   1  -1  -7    2.69    0.86
   1  -1   7    1.62    0.77
   1  -1   7    0.73    1.21
   1   1  -7    1.10    1.04
  -1  -7   1    0.88    0.94
  -1  -7   1    1.67    0.80
  -1  -1  -7    2.63    1.16
  -1  -1  -7    0.88    0.80
  -1  -1   7    1.08    0.82
  -1  -1   7    1.47    1.20
  -1   7   1    1.95    0.88
   1  -7  -1   -0.70    1.36
   1  -7  -1    2.77    0.82
   1  -7   1    0.66    0.85
  -7  -1  -1    1.64    1.05
  -7  -1   1    2.34    0.99
  -7   1  -1    2.47    1.04
  -7   1   1    0.73    0.92
  -1  -7  -1    1.44    1.46
  -1  -7  -1    1.71    0.88
  -1   1   7    1.95    0.95
  -1   7  -1    2.00    0.89
  -1   7   1    1.37    0.93
   7  -1  -1    2.07    0.98
   7  -1   1    1.79    0.89
   7   1  -1    1.63    0.92
   7   1  -1    1.40    0.79
   7   1   1    1.13    0.87
  -1   1  -7    2.53    1.12
  -1   1  -7    2.39    0.79
   1   1   7    0.87    0.79
   1   1   7    0.42    1.35
   1   7  -1    2.54    0.73
   1   7   1    1.47    0.96
   1   7   1    1.37    0.76
   7  -1  -1    2.60    0.97
   0   2  -7    0.33    0.65
   0   2   7    0.33    0.98
   2  -7   0    2.67    1.23
   2   0   7    0.19    0.95
  -2   0   7   -0.18    0.81
  -2   0   7   -0.27    1.57
   0  -7  -2    0.86    1.46
  -7  -2   0    0.58    0.95
  -7   2   0    0.75    0.96
  -2   0  -7   -0.46    0.95
  -2   0  -7   -0.65    0.78
   7   0  -2    0.73    0.59
   7   0   2    1.50    0.89
   7   2   0   -0.50    0.84
   0  -2  -7    0.86    1.13
   0  -2   7    0.68    0.74
   0  -2   7    0.79    1.20
  -2  -7   0    0.83    0.73
  -2   7   0    1.11    0.77
  -2   7   0    1.04    0.77
   2  -7   0    1.26    0.76
   2   7   0    1.20    1.07
   2   7   0    0.74    0.72
   7   0  -2    0.96    1.00
  -7   0  -2    0.89    1.08
  -7   0   2    0.17    0.96
  -2  -7   0    0.38    1.34
   0  -7  -2    0.25    0.89
   0   7  -2   -0.13    0.80
   0   7   2    0.81    0.91
   0   7   2    0.12    0.82
   2   0  -7    3.11    1.09
   2   0  -7   -1.01    0.81
   7  -2   0    0.99    0.82
   2   0   7    1.12    1.41
   2   7  -1   -0.27    0.80
  -1   2   7   -0.03    0.90
   1   7   2   -0.84    0.99
   1   7   2    0.85    0.84
   2  -1  -7    0.84    1.26
   2  -1  -7    0.14    0.81
   7   1  -2   -0.06    0.99
   7   1  -2    0.18    0.64
  -2  -1   7   -0.92    0.87
  -1  -7   2   -0.24    0.79
   7   2   1    0.28    0.90
   1  -2   7    0.14    0.75
   2  -7   1   -1.03    0.94
  -7  -1  -2   -1.29    1.10
  -7   2  -1   -1.95    0.92
   1  -7  -2    3.15    1.63
   1  -7  -2    0.43    0.90
  -7   1   2   -0.52    0.83
  -2   7   1    0.65    0.72
  -7  -2   1    0.27    0.88
   2  -7   1    0.42    0.69
  -2   7   1    0.83    0.94
  -1  -2  -7   -0.91    1.22
   2   1   7    0.58    0.80
   2   1   7    0.11    2.02
  -2  -1   7   -2.70    1.46
  -2   1  -7    1.45    1.16
  -2   1  -7   -0.13    0.74
   1  -2   7   -1.38    1.16
   7  -1   2    0.17    0.77
   1   2  -7    0.88    0.85
  -2  -7  -1    3.33    1.52
  -1  -7   2    0.90    0.75
  -1   7  -2    1.65    0.89
  -2  -7  -1   -0.03    0.80
   7  -2  -1    0.20    0.82
   1   2  -7   -0.41    1.02
  -1  -7  -2   -2.05    0.89
   1   7  -2    0.23    0.79
   7   2  -1   -0.45    0.69
  -2   1   7    0.24    0.94
  -2  -7   1   -0.56    1.10
  -2  -7   1    0.96    0.77
  -2   7  -1    1.79    0.94
   1   2   7   -0.91    1.03
  -7  -2  -1    0.65    0.99
   2   1  -7   -0.76    0.71
  -1  -2   7    0.45    0.81
  -1  -2   7    1.26    1.03
  -1   2  -7   -0.59    1.04
  -1   2  -7   -0.02    0.72
   7   2  -1    0.07    0.97
   1  -2  -7    0.92    1.11
   1  -2  -7    0.63    0.80
   7  -1  -2    0.25    0.83
   7   1   2   -0.33    0.92
   2  -7  -1   -2.70    1.33
   2  -7  -1   -1.24    0.76
  -1   7   2    1.81    0.92
  -1   7   2    0.38    0.82
  -7   2   1   -1.15    0.92
   2   7   1   -0.27    0.97
  -2  -1  -7    1.90    1.22
  -2  -1  -7    1.23    0.84
   2   1  -7    1.57    1.04
  -1  -7  -2   -0.30    1.63
  -7  -1   2   -0.28    0.84
  -7   1  -2   -1.08    1.08
   7  -1  -2    0.38    0.56
   7  -2   1    1.40    0.80
   2  -1   7   -1.54    0.80
   2  -1   7   -0.24    1.36
   7  -1  -2    2.15    0.96
   2   7   1    1.02    0.79
   2  -2   7    1.93    1.25
   2  -2   7    0.54    0.77
  -7  -2   2    1.01    0.99
  -2   7   2    0.85    0.94
  -2   7   2    1.23    0.86
   2  -7  -2   -0.22    1.67
   2  -7  -2    0.49    0.97
  -2  -2   7   -1.89    1.36
  -2  -2  -7    0.60    1.26
  -2  -2   7    1.37    0.82
  -2   2   7    0.59    1.09
  -2   7  -2    0.34    0.86
  -7   2  -2   -0.41    0.99
  -7   2   2    1.49    1.06
  -2  -7  -2    0.09    1.92
  -2  -7  -2    0.50    0.76
  -2  -7   2    0.10    0.95
  -2  -7   2    1.51    0.83
   2   2  -7    1.67    1.23
  -2   2  -7   -0.12    0.77
  -7  -2  -2    0.28    1.11
   2   2  -7    1.46    0.90
   2   2   7    1.20    1.06
   2   7  -2    2.09    0.89
   2   7   2   -0.21    1.11
   2   7   2    1.94    0.96
   7  -2  -2    0.00    0.91
   7  -2  -2    2.55    1.02
   7  -2  -2    1.13    0.59
   7  -2   2   -0.55    0.80
   7   2  -2    0.74    1.20
   7   2   2    0.08    0.90
   2  -2  -7   -1.13    0.83
   2  -2  -7    0.02    1.15
   3  -7   0    0.95    0.87
   3   7   0    0.02    1.06
   3   7   0   -0.41    0.82
   3  -7   0    0.43    1.23
   0   3   7   -0.86    1.04
   0  -3   7   -0.03    0.72
   0  -3   7   -0.75    1.12
   0   3  -7    0.40    0.85
  -7   0  -3    1.29    1.11
  -7   0   3    0.69    0.98
  -3  -7   0    2.11    0.90
  -3   7   0    0.20    0.90
   0  -3  -7    2.75    1.36
   7   0  -3    1.64    1.15
   7   3   0    1.76    1.16
   3   0   7    1.37    0.94
   7  -3   0    1.42    0.94
   7   0  -3    0.43    0.71
   7   0   3    0.76    0.99
   3   0  -7    1.04    1.15
   3   0  -7    0.10    0.79
  -7  -3   0   -0.75    1.03
  -7   3   0    0.17    0.97
  -3   0  -7    0.81    1.11
  -3   0  -7   -0.61    0.77
  -3   0   7    1.11    0.93
   0  -7  -3   -0.10    1.04
   0   7  -3    0.74    0.82
   0   7   3   -0.47    1.17
   0   7   3   -0.32    0.88
   1  -7  -3    0.51    1.08
  -3   7   1   -0.93    0.79
  -3   7   1   -0.17    1.02
   1  -3   7    0.26    0.73
   1  -3   7    1.64    1.15
   1   3  -7    0.98    0.84
  -3   1  -7    0.84    0.83
   7   3   1    2.39    1.07
  -1  -3  -7   -0.26    1.36
  -7  -3   1    1.24    1.10
  -1   7  -3   -0.61    0.76
   3   1   7    0.81    0.94
   1   7   3    1.57    1.32
   1   7   3    0.50    0.97
   3  -1  -7    0.96    1.33
  -7   1   3    1.33    0.96
   3  -7   1    2.58    1.11
   3  -7   1    1.05    0.76
   3   7  -1    1.84    1.14
   3   7  -1    0.84    0.88
  -1   3   7   -0.70    1.24
  -3  -1   7   -0.78    0.83
  -7  -1  -3   -0.47    1.18
  -7   3  -1   -0.03    1.04
   7  -1   3    0.84    0.81
   7   1  -3    0.71    1.08
   7   1  -3    0.67    0.76
  -3   1  -7    1.15    1.26
   7  -3  -1   -0.04    0.92
  -3  -7  -1    0.37    0.83
   3  -1  -7    0.69    0.79
   3   1  -7    0.37    0.87
  -1   7   3    0.84    1.17
   3  -1   7    0.35    0.92
   3   7   1    2.09    0.91
   7   1   3    1.10    1.02
  -3   7  -1    0.55    0.89
   3  -7  -1    1.70    0.92
   1  -3  -7    2.22    1.45
  -1  -3   7    0.54    1.15
   7  -1  -3    0.38    0.73
  -7   3   1    0.97    0.99
   1   3   7   -0.93    1.16
  -3  -1  -7   -0.37    0.80
  -1   7   3    0.58    0.88
   7  -3   1    1.02    0.81
   7   3  -1    1.36    1.24
   3   1  -7    1.13    1.16
  -3   1   7    0.01    0.66
  -1  -7  -3    1.66    1.01
  -1   3  -7    1.17    0.88
   1   7  -3    1.11    0.90
   7  -1  -3    1.27    1.05
  -7  -1   3   -0.99    0.87
  -7   1  -3    1.25    1.24
  -3   1   7   -1.59    0.94
  -3  -1  -7    2.82    1.35
  -3  -7   1    0.37    0.86
  -1  -3   7    0.30    0.76
  -7  -3  -1    4.29    1.23
   3   7   1    2.66    1.12
  -3  -7  -2   -0.17    1.07
   3   7  -2   -0.76    0.83
   2   3  -7   -0.38    0.83
  -3   7   2    0.23    0.96
  -3   7   2   -0.27    0.92
  -2  -3  -7    3.21    1.50
   7  -3  -2    2.65    0.95
   7   3   2    0.08    1.27
  -3  -2   7   -0.47    0.85
  -3   2  -7    0.70    0.91
   7   2  -3   -0.86    1.18
   2  -3   7   -1.08    1.54
  -7  -2  -3    0.22    1.29
   3  -2  -7    0.08    0.98
   2   7   3   -0.91    1.39
  -7   2   3    0.32    1.08
   3  -2  -7    0.89    1.37
  -7  -3   2   -0.82    0.97
  -7   3  -2   -0.08    1.03
  -2   3   7   -0.25    1.19
  -2   3   7    1.03    0.92
   7   2  -3    0.16    0.83
   2  -3   7    0.17    0.73
   2  -7  -3    0.11    1.14
   7  -3  -2   -1.34    0.63
   3   2   7   -0.12    1.02
  -2  -7   3    1.57    0.84
   2   7   3    0.46    1.01
   7  -2   3    0.62    0.91
  -2   7   3    2.03    1.22
   2   7  -3    1.13    0.89
  -7   2  -3    1.65    1.17
  -3   2   7    0.55    1.07
  -7  -3  -2   -0.47    1.17
  -7  -2   3    0.70    1.07
   3  -2   7   -0.82    0.88
  -2   7   3    2.91    1.09
  -3   7  -2    1.09    0.93
   7  -2  -3    0.74    0.98
   2   3   7    1.25    1.37
   7  -3   2    0.10    0.83
  -3   2   7   -0.22    0.78
  -2  -7  -3    0.12    1.02
  -2  -3   7    1.37    0.82
  -2   3  -7   -1.06    0.85
   3   7   2    2.32    1.39
   3   7   2    0.62    0.98
   3   2  -7    2.75    1.24
   7  -2  -3    0.66    0.73
   2  -3  -7   -0.17    1.35
  -3  -7   2    1.32    0.91
   3   2  -7    0.07    0.84
   7   2   3   -2.65    1.15
   3  -7  -2    0.58    0.98
   7   3  -2   -0.57    1.18
  -7   3   2    0.61    1.24
  -3  -2  -7    1.84    1.37
  -7   3  -3   -0.76    1.02
  -3  -7  -3    0.89    1.20
   3   3   7    3.49    2.97
   3   7  -3   -0.10    0.95
   3   7   3    1.87    1.70
   3   7   3    0.24    1.35
  -3  -3   7    0.28    0.90
  -3   3   7    1.69    2.87
  -3   3   7   -0.14    0.95
  -3   7   3   -2.33    1.28
  -3   7   3   -1.85    1.14
   3  -3  -7    0.38    1.51
  -3  -3  -7    2.20    1.65
   7   3   3    0.85    1.42
  -3   3  -7   -0.23    0.92
  -3  -7   3    0.20    0.99
  -7  -3  -3    2.54    1.45
   3  -3   7    2.14    0.89
   3   3  -7   -0.83    0.88
  -7  -3   3   -0.71    1.17
   7  -3  -3   -0.43    0.83
   7  -3   3    0.57    1.06
   7   3  -3   -1.05    1.40
   3  -3  -7    0.89    1.05
   0   7   4   -2.55    1.51
   0   7   4   -1.13    1.93
   4   0  -7    0.97    1.34
   4   0  -7    1.49    1.50
   4   0   7    0.47    1.11
   0  -4  -7   -0.40    1.40
  -7   0  -4   -0.57    1.35
  -7   0   4    0.52    1.23
  -4  -7   0    1.40    1.06
  -7   4   0   -0.71    1.19
  -4   0  -7    2.37    1.61
  -4   0  -7    0.86    0.88
   0  -7  -4   -0.12    2.52
   7   4   0   -0.43    1.33
   7   0   4   -2.62    2.20
   7   0  -4   -0.69    1.19
   7   0  -4   -0.13    0.86
   4  -7   0    1.57    0.95
   7  -4   0    0.45    1.47
  -4   7   0    0.08    1.39
   4   7   0    1.73    1.18
   4   7   0    0.50    1.04
  -7  -4   0    2.08    2.18
   0   4  -7    1.15    1.02
   0   4   7    0.51    1.34
   4  -1  -7    2.02    1.48
  -4   1  -7    0.64    0.89
  -7  -4   1   -2.87    2.46
   1   7   4    1.58    1.67
   1   7   4   -0.05    1.76
  -7   1   4   -0.46    1.05
   7   1  -4   -1.21    1.26
  -4   1  -7    0.50    1.35
   1   4  -7   -1.18    0.78
   4   1   7    1.29    2.30
   7  -4  -1   -1.23    1.78
   4  -7   1    0.08    0.85
   4   7  -1   -1.92    1.15
   4   7  -1    0.21    0.96
   7   4   1   -2.71    1.42
  -1  -4  -7   -0.91    1.52
  -1   4   7    1.90    1.15
  -1   4   7   -0.53    1.41
  -4   7   1    1.70    1.38
   7   1  -4    1.43    0.90
  -7   4  -1    0.22    1.15
  -7  -1  -4    0.96    1.42
   7  -4   1   -1.01    1.03
  -7   4   1    0.34    1.19
   4   1  -7    0.45    1.35
   4   7   1    3.17    1.40
  -4  -1  -7    0.83    0.91
  -7   1  -4    1.68    1.25
   4  -7  -1    1.91    1.05
  -4  -7   1    1.19    1.05
   7  -1  -4    1.65    1.31
   7  -1  -4   -0.49    0.83
  -4  -1  -7    0.38    1.55
   7   1   4   -0.60    2.33
   7   4  -1    0.55    0.80
   4   1  -7   -2.93    1.82
   7   4  -1   -0.63    1.36
  -1   7   4   -2.26    2.26
   4   7   1    0.39    1.06
  -1   4  -7    1.21    0.95
  -1   7   4    2.34    1.64
   4  -1   7    0.86    1.02
  -4   7  -1    0.98    1.45
   1  -4  -7   -0.39    1.35
   1   4   7    1.12    1.34
  -7  -4  -1    2.54    2.41
  -7  -2  -4    0.32    1.45
   7   2  -4    1.34    0.97
  -4   7   2    1.84    1.69
  -4  -7  -2    0.92    1.37
   7  -2   4   -0.16    1.16
  -4  -2   7   -0.10    1.83
  -4   2  -7    0.46    0.98
  -2   4   7    2.38    1.10
   2  -7  -4   -0.52    1.23
   4  -2  -7    1.27    1.49
  -2  -4  -7   -0.85    1.67
  -7  -4   2    0.72    1.31
   4   7  -2   -0.04    0.99
   7  -4  -2   -0.68    1.05
  -7   4  -2    1.17    1.07
  -2   4   7    2.75    2.86
   2   7   4    1.67    1.76
   7   2  -4    1.71    1.52
   2   4  -7    0.84    1.00
   4  -2  -7   -0.25    1.13
   4  -7   2   -0.80    0.75
   2   7   4    0.44    1.21
   7   4   2   -1.26    1.51
   4   2   7    2.52    1.33
  -4   7   2    1.38    1.24
   7  -4  -2   -0.87    0.80
  -7   4   2    0.45    1.30
   2  -4  -7    0.36    1.57
  -2  -7  -4   -0.86    1.24
   2   4   7   -0.29    2.10
   4  -2   7    0.54    1.03
  -7  -2   4   -0.79    1.14
  -4   2   7    0.61    1.27
   4  -7  -2    2.85    1.35
  -4   2   7   -0.45    0.77
  -2   4  -7   -1.29    1.01
  -4  -2  -7    1.46    1.01
  -2   7   4   -0.88    1.27
  -7  -4  -2   -0.25    2.98
  -7   2  -4    0.28    1.19
  -4  -2  -7    0.25    1.71
  -4  -7   2   -1.82    1.05
   7  -2  -4   -1.44    0.87
  -2   7   4   -0.15    1.59
   7   2   4    0.17    1.32
   4   7   2    0.51    1.63
   4   7   2    0.45    1.08
   7  -2  -4    0.38    1.30
   7   4  -2   -1.78    1.51
   4   2  -7    0.70    1.32
   4   2  -7    0.52    1.09
   7   3  -4    2.13    1.65
  -4  -7  -3    1.89    1.39
   7   3  -4   -0.34    0.93
  -4   7   3    1.64    1.62
  -4   7   3   -0.35    1.09
  -3  -4  -7    0.30    1.47
   4   7  -3   -0.19    0.96
  -3   4   7    2.68    1.77
  -3   4   7    0.35    1.19
   3   7   4    0.13    1.34
  -7  -3  -4    2.80    1.77
   4  -3  -7    0.48    1.14
  -3  -7   4    0.26    1.06
   3  -7  -4   -3.02    1.50
   3   7   4   -0.31    1.94
   4  -3  -7    1.44    1.58
   7  -3   4   -1.39    0.97
   7  -4  -3    1.64    0.98
  -7  -4   3    1.32    1.29
   7  -4  -3    0.83    1.34
   4   3   7    3.19    1.46
   3   4  -7    0.98    1.04
  -3  -7  -4    3.19    1.80
  -4   3   7    0.77    1.02
   4  -3   7    0.41    1.00
   4   3  -7    0.61    1.04
  -3   7   4    2.21    1.28
  -4  -3  -7   -0.33    1.79
  -3  -4   7   -0.17    1.04
   7  -4   3    1.27    0.95
   3  -4  -7   -0.84    2.41
  -3   7   4    0.94    1.77
   3   4   7    1.32    1.48
   4  -7  -3    2.63    1.35
   7   4  -3   -0.55    1.66
   4   7   3    1.41    1.85
   4   7   3   -0.61    1.21
   7  -3  -4   -0.45    1.28
   7  -3  -4    0.76    1.06
  -7  -4  -3    0.43    1.46
  -7  -3   4    1.51    1.42
  -4   3   7    2.00    1.70
  -4  -7   3   -0.66    1.15
   4  -4  -7    0.47    1.45
   4   7   4    7.42    2.41
  -7  -4   4   -0.52    1.53
  -4  -7  -4    0.48    1.63
  -4  -4   7    2.12    1.25
  -4   4   7    1.95    1.93
   4   4  -7   -1.90    1.24
  -4   7   4    1.89    1.95
  -4   7   4   -0.88    1.21
   4  -7  -4    2.85    1.82
   4  -4  -7    1.11    1.93
  -7  -4  -4    2.25    2.05
   7   4  -4    1.29    1.92
   7   4   4   -1.80    1.90
   4   4   7    0.05    2.10
   7  -4  -4    0.47    1.16
  -4   4   7   -0.07    1.28
   7  -4  -4    0.18    1.79
   7  -4   4    0.13    1.09
   4   7   4   -2.64    1.53
  -7   5   0   -1.65    1.25
   7   0   5   -0.25    1.16
  -5   0  -7    1.13    1.81
   5   7   0    2.27    1.23
   7   0  -5    1.45    1.51
   0   7   5   -1.35    1.38
   5   0  -7    0.65    1.75
   5  -7   0    0.46    1.39
   5   7   0    0.74    1.56
  -7   0  -5   -2.85    1.47
  -7   0   5    1.50    1.47
  -5  -7   0    1.72    1.46
  -5   7   0   -0.82    1.26
   0  -5  -7    3.24    3.06
   0   5  -7   -0.19    2.10
   0   5   7    4.38    2.05
   0   5   7    2.64    1.33
   5   0  -7    0.79    1.17
   5   0   7   -2.22    1.14
   7  -5   0    0.38    1.20
   7   5   0    0.91    1.79
   7   5   0   -1.79    1.17
  -5   0   7   -1.97    1.26
   0  -7  -5   -2.47    1.50
   0   7   5    0.20    2.01
   7   0  -5   -0.15    1.08
  -7  -5   0   -2.20    1.36
  -1   5   7    0.23    1.89
   7   1  -5    1.86    1.13
   1  -7  -5   -0.12    1.54
  -5  -1   7   -1.53    1.31
   1   7   5    2.60    1.49
   5   7  -1    0.61    1.12
   1   7   5    0.48    2.00
  -7  -1  -5    1.88    1.88
   5  -1  -7   -1.67    1.54
  -1   5   7    0.95    2.16
   5   1   7   -1.33    1.19
   1   5  -7   -0.12    1.07
  -5   7   1    2.56    1.37
  -7  -5   1    1.44    1.40
   5  -7   1   -1.56    1.07
   7   5   1   -0.74    1.92
   7  -1   5    1.66    1.28
   7   1  -5    2.28    1.75
   7  -5  -1    0.39    1.14
   5  -1  -7    0.12    1.29
  -5  -7  -1   -0.32    1.39
  -1  -5  -7    3.74    2.48
  -5  -7   1   -2.58    1.23
   7   5  -1    0.95    1.78
   5   7   1    0.98    1.23
   5   1  -7    0.08    1.27
   7  -5   1    1.21    1.07
  -1   5  -7   -0.04    1.10
   7   5  -1    0.07    1.14
   1   5   7    0.94    1.71
   7   1   5   -2.86    1.35
  -7  -1   5   -0.71    1.29
   7  -1  -5   -1.13    1.41
   7  -1  -5    0.79    1.08
  -5  -1  -7   -2.02    0.95
  -7  -5  -1    0.24    1.71
   5  -7  -1   -0.27    1.11
  -7   5   1   -0.55    1.31
  -5  -1  -7   -0.23    1.95
   5   7   1   -1.59    1.69
   1  -5  -7    0.99    1.87
   5   1  -7    3.60    1.77
  -1  -7  -5    1.22    1.54
  -1   7   5    1.94    1.92
  -1   7   5   -2.50    1.36
  -7   1  -5    2.38    1.67
  -5   1   7    2.25    1.42
   5  -1   7   -0.27    1.18
   2  -7  -5   -1.01    1.69
   7   5   2   -1.73    1.81
   2   5  -7    1.90    1.31
  -7  -2  -5    1.77    1.93
   7  -2   5    0.39    1.23
   7   2  -5   -2.16    1.78
  -5  -7  -2    0.37    1.70
  -2   5   7    0.61    2.53
   5  -7   2    0.95    0.92
   5  -2  -7    2.05    1.44
   7   2  -5   -0.88    1.15
  -2   5   7    2.29    1.87
  -7  -5   2   -0.26    1.48
   5   7  -2    0.26    1.06
   2   7   5   -0.24    2.00
   2   7   5    0.62    1.58
   5  -2  -7    3.05    1.89
  -5   7   2    1.23    1.35
  -2  -5  -7   -3.43    1.74
   7  -5  -2   -0.31    1.52
   5   2   7   -1.15    1.56
   5   7   2   -1.06    2.06
  -5   2   7    3.40    1.79
  -5  -2  -7    0.71    2.07
   5  -7  -2   -0.20    1.29
   7  -2  -5   -3.07    1.50
  -7   5   2   -0.70    1.45
   2  -5  -7    1.18    1.87
   7   5  -2    1.46    1.79
   5   2  -7    0.07    1.24
  -2  -7  -5    3.30    1.72
  -7  -2   5   -0.23    1.41
  -2   7   5   -1.56    1.40
  -5  -7   2    0.59    1.29
  -7  -5  -2   -0.35    1.77
   5  -2   7   -0.44    1.16
   7  -2  -5   -0.18    1.12
   5   7   2    3.66    2.08
   7   2   5   -0.73    1.43
  -5  -2  -7    0.73    1.09
  -2   7   5   -0.45    2.01
   2   5   7    2.73    1.95
   5  -3  -7   -1.22    1.47
  -7  -3  -5   -0.06    2.05
   7   3  -5   -1.69    1.25
   7   3  -5   -0.22    2.04
  -5  -7  -3    0.28    2.11
   3   7   5    0.39    1.74
  -7  -5   3    0.19    1.59
   3  -7  -5   -1.10    1.65
   5   3   7    0.65    1.55
   7  -3   5    2.66    1.26
  -5   7   3   -0.84    1.45
  -3  -5  -7    1.51    2.03
   7  -5  -3    1.35    1.26
  -3   5   7   -0.02    2.02
   7   5   3    2.94    2.22
  -5  -3   7    0.14    1.56
  -3   5   7   -1.39    2.58
   7  -5  -3    3.42    1.57
   3   7   5   -3.37    3.11
   3   5  -7    0.65    1.38
   5  -3  -7    2.46    1.95
   7  -3  -5    1.84    1.45
   5   7   3   -1.76    2.21
   5   7   3    2.18    1.73
  -5   3   7   -0.54    1.79
   3  -5  -7   -0.26    2.07
  -3   7   5   -2.68    1.41
   3   5   7    0.85    2.01
  -3  -7  -5    0.58    1.89
  -3  -5   7    0.10    1.32
   7  -5   3   -1.27    1.06
   7  -3  -5    0.31    1.82
  -5  -7   3    1.84    1.46
   5   3  -7   -0.37    1.42
  -3   7   5    1.11    2.34
  -5  -3  -7    0.56    1.97
   5  -3   7   -0.41    1.22
   7   3   5    2.50    1.84
   5  -7  -3   -0.68    1.53
  -7  -5  -3    4.53    1.99
  -7  -3   5   -0.59    1.61
  -5   7   4    0.29    2.54
  -4   5   7    4.23    2.73
   5  -4  -7   -3.16    1.54
  -4  -7   5    0.97    1.48
  -5  -4   7    0.70    1.56
  -5  -7  -4    5.61    2.60
   4  -7  -5    5.40    2.32
  -4   5   7    0.66    1.82
  -5   7   4    1.92    1.51
  -4  -5  -7   -1.64    2.24
   4   7   5    0.27    2.40
   7   5   4    0.25    2.41
  -7  -5   4   -1.09    1.64
   5  -4  -7   -3.64    2.02
  -7   4   5   -0.01    2.02
   4   7   5    1.63    1.59
   5   4   7   -0.60    1.94
   7  -5  -4   -1.21    1.45
   4   5  -7    1.24    1.53
   7  -5  -4    0.53    1.70
   7  -4   5    2.65    1.36
  -7  -4  -5    6.94    2.57
   7   4  -5   -0.15    1.42
   4   5   7    2.75    2.22
   5   4  -7    2.90    1.68
   5   7   4    1.49    2.71
  -7  -4   5    0.89    1.86
  -4   7   5    3.04    2.64
  -4   7   5    0.47    1.44
  -5  -7   4    0.43    1.58
  -5   4   7    4.39    2.76
   7  -4  -5    2.04    1.46
  -5  -4  -7   -0.61    2.30
   5  -7  -4   -0.03    2.13
   4  -5  -7    0.73    2.30
  -7  -5  -4    0.86    2.43
   7  -4  -5    0.13    1.96
  -4  -5   7   -2.13    1.43
   5  -4   7   -0.07    1.26
   5   7   4    1.94    1.86
   7   4   5   -2.41    1.93
   7  -5   4   -1.05    1.19
  -4  -7  -5    1.52    2.19
   7  -5  -5   -1.51    2.23
  -5  -7  -5   -1.70    2.83
  -7  -5   5   -0.06    1.97
  -5   5   7    5.83    2.99
   7  -5  -5   -1.54    1.77
  -7  -5  -5   -2.23    2.86
   5   5  -7    2.12    1.61
   5   5   7    2.24    2.77
   5   7   5    5.72    3.32
  -5   7   5    0.45    1.82
   5  -7  -5   -3.82    1.95
   7  -5   5    2.59    1.51
   7   5   5   -2.61    2.70
  -5  -5   7   -2.36    1.76
   5  -5  -7    3.76    1.96
  -5  -7   5    0.98    1.84
  -5  -5  -7   -3.57    2.45
   5  -5  -7    2.50    2.76
   0   6   7   -1.20    1.77
   7   0  -6   -1.40    1.35
   6   0  -7    0.59    1.42
  -7  -6   0    2.00    1.99
   7   0   6    1.83    1.68
   6  -7   0    1.12    1.35
   0   7   6   -1.83    3.45
   0   7   6   -1.35    1.68
   0  -6  -7    3.92    2.03
   6   7   0    0.62    1.43
   7   0  -6   -0.27    2.14
   7  -6   0    2.62    1.57
   6   0  -7    2.53    2.14
   6   0   7   -1.19    1.66
  -6   0   7   -0.13    1.79
   0  -7  -6   -2.23    1.87
   7   6   0    2.27    2.47
   7   6   0    2.06    1.43
  -6  -7   0    2.91    1.85
   0   6   7    3.37    2.36
   1  -7  -6    0.21    2.15
  -6  -7  -1    3.65    2.14
   6   1   7    1.01    1.61
   7   6   1   -0.17    1.66
   6  -1  -7    2.31    3.03
  -7  -6   1    0.22    1.65
  -7  -1  -6   -0.64    2.33
  -1   6   7    3.62    2.24
  -1  -6  -7   -1.63    2.05
   1   7   6   -2.22    1.84
   7   6   1    2.85    2.33
   6  -1  -7   -0.14    1.35
   7   1  -6    0.35    2.14
   6  -7   1    2.76    1.27
  -1   6   7   -0.13    1.65
   1   7   6    2.50    2.36
   7  -6  -1   -0.86    1.55
   7   1  -6   -0.65    1.34
   7  -1   6    0.52    1.56
  -1  -7  -6    2.78    1.90
   7  -6   1   -1.07    1.38
  -7  -6  -1    0.65    1.95
   7  -1  -6    3.21    2.10
   7  -1  -6    1.39    1.31
  -1   7   6    3.19    1.82
   6  -1   7   -0.06    1.46
  -7  -1   6    4.13    1.79
  -1   7   6    1.58    3.62
   6   1  -7    3.26    2.22
   6   7   1   -0.75    2.41
  -6   1   7    1.01    2.11
   6   1  -7   -0.21    1.57
   1  -6  -7   -1.53    2.03
   1   6   7   -3.33    2.12
   1   6   7    2.85    1.86
   6  -7  -1    1.69    1.46
   7   1   6    0.16    1.71
  -6  -1  -7   -1.01    2.57
   6   7   1   -0.25    2.42
   6   2   7   -2.21    1.79
   2   7   6    3.27    2.35
   2   7   6   -2.51    1.93
   6  -2  -7    4.44    2.07
   6  -2  -7   -0.66    1.62
   7   2  -6    1.24    1.55
   7   6   2   -1.60    3.83
  -6  -7  -2   -0.06    2.06
  -2   6   7    1.44    1.63
  -6   7   2    3.00    1.59
  -2  -6  -7   -1.14    2.07
   6  -7   2   -0.60    1.16
   7  -6  -2    0.18    1.55
  -7  -6   2   -0.80    1.81
  -7  -2  -6    1.92    3.07
  -6  -2   7   -0.88    1.86
   2  -7  -6    1.10    2.10
   7  -2   6   -0.18    1.51
  -2   6   7    1.16    2.55
   2   6   7    3.16    2.41
  -6   2   7    1.02    1.88
   6   7   2   -1.61    2.68
  -6  -2  -7   -0.17    2.60
   7  -2  -6    1.67    2.19
   7  -2  -6    0.88    1.43
   6  -2   7   -1.72    1.44
   7  -6   2   -0.13    1.27
   6   2  -7   -0.81    1.48
  -2   7   6   -1.90    2.39
  -2   7   6    0.12    1.73
   2  -6  -7    4.31    2.42
   6  -7  -2    1.37    1.72
  -6  -7   2   -1.17    1.78
  -7  -2   6    2.73    1.85
  -2  -7  -6    3.22    2.36
   6   7   2   -0.19    1.65
   7   2   6    0.67    1.72
  -7  -6  -2    3.19    2.29
  -7  -6   3    0.49    1.91
  -3   6   7    2.12    1.96
   6   3   7    1.65    2.11
  -7   3   6    0.79    2.04
  -6  -7  -3    4.68    2.27
   7   3  -6   -0.87    1.47
   7  -6  -3    1.40    2.02
   3  -7  -6   -0.24    2.20
  -3  -6  -7   -0.66    2.43
   7   6   3    5.34    2.99
   3   7   6   -3.08    2.48
   6  -3  -7   -1.26    1.77
  -7  -3  -6    2.34    2.71
  -6   7   3    3.54    1.69
   6  -3  -7    1.01    2.19
  -3   6   7    1.88    2.78
   3   7   6    2.23    2.01
   7  -3   6    2.51    1.57
  -6  -3   7    2.08    1.87
   6  -3   7    1.38    1.50
   7  -6   3   -2.13    1.28
  -3  -7  -6    2.38    2.32
  -3   7   6    2.29    2.71
   7  -3  -6    1.61    1.58
   6   7   3    1.40    2.87
   7   3   6   -0.15    1.98
  -6   3   7   -2.08    2.63
   3   6   7   -1.67    2.54
   6   7   3   -0.60    1.93
  -7  -3   6    1.19    1.98
   6   3  -7    1.15    1.80
  -6  -7   3    0.92    1.81
   6  -7  -3    2.02    1.80
  -7  -6  -3   -2.54    2.37
   3  -6  -7    3.34    2.60
  -6  -3  -7    4.16    3.00
  -3   7   6    3.49    1.93
   7  -3  -6    2.12    2.17
  -7   4   6    2.30    2.96
   7   4  -6    0.74    1.76
   7  -4   6    0.36    1.67
   4   7   6   -1.60    1.80
  -6   7   4   -0.96    1.84
   6   4   7    4.32    2.43
   7  -6  -4    2.48    2.13
  -4   6   7   -3.03    3.11
   7   6   4   -2.34    2.74
   6  -4  -7    1.24    1.97
  -4  -6  -7    2.70    2.89
  -7  -6   4    5.71    2.06
   4  -7  -6    1.38    2.29
  -6  -4   7    1.01    1.93
   6  -4  -7   -1.36    2.63
  -7  -4  -6   -5.07    2.85
  -4   6   7    0.98    2.15
   4   7   6   -0.22    2.93
  -6  -7  -4    0.80    2.48
   7   4   6   -4.37    2.59
   6   4  -7    1.20    1.75
   4   6   7    2.55    2.90
  -4  -6   7    2.10    1.80
   7  -6   4    2.30    1.48
  -7  -4   6    1.24    2.11
   6  -7  -4   -2.27    1.98
   4  -6  -7    0.20    2.51
  -7  -6  -4    5.37    2.76
   6   7   4    9.10    3.31
  -6  -4  -7   -1.01    3.07
   7  -4  -6    3.17    2.45
  -6   4   7   -1.19    3.05
  -4  -7  -6    2.12    2.53
  -4   7   6   -4.75    3.32
  -4   7   6    1.28    1.88
   6   7   4   -1.93    2.31
  -6  -7   4   -2.59    2.00
   7  -4  -6   -2.03    1.86
   6  -4   7    0.47    1.57
  -7  -6   5    5.55    2.55
  -5  -6  -7    0.19    3.26
  -7  -5  -6   -3.34    3.15
  -5  -7   6    5.72    2.30
  -6  -7  -5   -0.21    3.67
  -6  -5   7    1.33    2.26
  -6   7   5   -0.31    2.22
  -6  -7   5    0.08    2.21
  -5  -6   7   -1.32    2.15
  -6  -5  -7   -0.39    3.26
  -7  -6  -5    4.31    3.67
  -7  -5   6    1.13    2.68
  -5   7   6   -2.36    2.23
  -7  -7   0    3.41    2.11
   0  -7  -7    2.58    2.71
   0   7   7    1.68    3.03
   0   7   7    1.21    2.24
   7  -7   0   -0.50    1.75
   7   0  -7    3.14    2.74
   7   0  -7   -0.07    1.65
   7   0   7   -1.47    1.99
  -7  -7  -1   -3.44    2.23
  -7  -7   1   -0.85    2.09
  -7  -1   7    1.03    2.16
  -1   7   7    2.24    3.34
  -1   7   7    1.06    2.17
   1  -7  -7    1.07    2.64
   1   7   7   -0.21    3.26
   1   7   7   -1.05    2.15
   7  -7  -1    2.84    1.81
   7  -1  -7    0.32    2.71
   7  -1  -7   -0.19    1.75
   7  -1   7    5.27    1.90
   7   1  -7    0.68    1.74
   7   1   7    0.67    1.91
   7   7   1   -0.58    2.14
  -7  -7  -2   -0.46    2.38
  -7  -7   2   -3.77    2.16
  -7  -2   7   -0.44    2.22
  -7   2   7   -0.22    2.44
  -2  -7  -7   -1.27    2.44
  -2   7   7    1.20    2.86
  -2   7   7    2.86    2.24
   2  -7  -7   -0.55    2.78
   2   7   7    0.88    3.05
   7  -7  -2   -2.01    1.79
   7  -7   2    0.20    1.58
   7  -2  -7   -0.26    2.77
   7  -2  -7    1.65    1.73
   7  -2   7    3.12    1.84
   7   2  -7    1.38    1.71
   7   2   7    2.23    2.06
   7   7   2    0.94    2.50
  -7  -7  -3    1.07    3.53
  -7  -7   3    3.54    2.40
  -7  -3  -7   -1.74    4.97
  -7  -3   7    2.57    2.53
  -7   3   7   -0.89    3.04
  -3  -7  -7   -3.45    2.93
  -3   7   7    3.71    3.52
  -3   7   7    0.83    2.27
   3  -7  -7    1.48    2.75
   3   7   7    6.46    3.26
   3   7   7    2.53    2.65
   7  -7  -3   -2.31    2.40
   7  -7   3    5.67    1.68
   7  -3  -7   -2.56    2.84
   7  -3  -7    0.68    2.10
   7  -3   7   -0.79    1.78
   7   3  -7   -1.61    1.91
   7   3   7   -0.31    2.94
   7   7   3    0.64    4.00
   7   7   3   -4.40    2.66
  -8   0   0   13.58    1.83
   0  -8   0    9.06    1.39
   0   0  -8   10.84    1.77
   0   0  -8    8.96    1.35
   0   0   8    9.49    1.49
   0   8   0   10.85    1.42
   8   0   0   12.26    1.65
  -8   0  -1   10.65    1.66
  -8   0   1    8.17    1.57
  -1  -8   0    6.68    1.24
  -1   8   0   11.61    1.66
   0  -1  -8   10.44    1.67
   0  -1  -8    4.79    1.09
   0  -1   8    6.21    1.19
   0   1  -8    6.28    1.40
   0   1  -8    5.39    1.15
   0   1   8    8.46    2.12
   1  -8   0    8.00    1.19
   1   8   0    8.52    1.26
   8   0  -1    8.85    1.46
   8   0   1    8.95    1.51
   1   0  -8    5.05    1.60
   1   0  -8    5.72    1.18
   1   0   8    7.74    1.34
   8  -1   0    9.38    1.59
   8   1   0    9.91    1.53
   0   8  -1    7.07    1.12
  -8  -1   0    9.58    1.61
  -8   1   0   11.77    1.64
  -1   0  -8    6.42    1.41
  -1   0  -8    6.02    1.15
  -1   0   8    7.78    1.41
   0  -8  -1    7.65    1.23
   0  -8   1    6.23    1.06
   0   8   1    9.24    1.42
   0   8   1    8.75    1.40
   1   8   1    5.94    1.24
  -1   8  -1    4.29    1.17
   1  -8  -1    5.49    1.16
   1  -8   1    5.68    0.97
   1  -1  -8    6.26    1.67
   1  -1  -8    4.43    1.25
  -8  -1  -1    8.60    1.59
  -8  -1   1    6.97    1.35
  -8   1  -1    8.50    1.62
  -8   1   1    6.71    1.52
  -1  -1  -8    4.77    1.14
  -1  -1   8    6.10    1.24
  -1   1  -8    4.65    1.55
  -1   1  -8    4.14    1.10
   1  -1   8    4.40    1.15
   1   1  -8    4.51    1.60
   1   1  -8    5.26    1.14
   1   8  -1    5.92    1.32
   1   8   1    5.79    1.34
  -1  -1  -8    3.61    1.64
   8  -1  -1    6.29    1.67
   8   1  -1    6.72    1.52
   8   1   1    6.68    1.39
  -1  -8   1    5.56    1.16
  -2   0   8    7.16    1.57
   0  -2  -8    6.35    1.64
   0  -2  -8    5.68    1.28
  -2   0  -8    5.91    1.47
   0   8   2    9.78    1.59
   0   8   2    7.77    1.46
   2   0  -8    8.22    1.66
   2   0  -8    7.06    1.33
   2  -8   0    6.79    1.15
   2   8   0    6.62    1.24
   8   0  -2    8.77    1.57
   8   0  -2    7.23    0.88
   8   0   2    8.62    1.68
   8   2   0   10.93    1.71
  -8  -2   0    8.38    1.59
  -8   2   0    8.27    1.59
   0   2   8    6.36    1.64
   0   2  -8    5.74    1.13
  -2   0  -8    5.25    1.12
   0   8  -2    7.71    1.34
  -8   0  -2    8.21    1.81
  -8   0   2   11.02    1.65
  -2  -8   0    6.44    1.19
  -2   8   0    8.69    1.52
   0  -2   8    7.65    1.23
   8  -2   0    9.13    1.41
   1   8   2    7.41    1.52
  -1   8  -2    7.29    1.91
   8   2   1    6.24    1.56
  -1   2   8    4.12    1.48
   8  -1   2    6.59    1.33
   2  -1  -8    5.04    1.74
   2  -1  -8    4.12    1.16
   1  -2   8    5.65    1.13
  -8   2  -1    8.35    1.53
  -2   1  -8    4.59    1.12
   2   1   8    4.49    1.39
   8  -2  -1    7.29    1.48
  -8   1   2    8.19    1.57
  -1  -2  -8    4.82    1.75
  -8  -1  -2    8.31    1.71
   2  -8   1    5.45    1.00
   1   8   2    6.53    1.42
  -2   8   1    8.01    1.36
   8   1  -2    6.03    1.63
  -1  -2  -8    4.29    1.16
   2   8  -1    5.55    1.23
  -2  -1  -8    5.70    1.69
   1  -2  -8    4.68    1.66
   8   2  -1    6.76    1.65
  -1  -8  -2    3.02    1.74
   1   8  -2    6.32    1.25
  -2  -1  -8    5.79    1.18
   8   1   2    8.37    1.69
  -1  -2   8    6.50    1.29
  -1   2  -8    4.54    1.20
  -8  -2  -1    6.38    1.64
   2   1  -8    5.77    1.38
  -8   2   1    4.56    1.57
   1  -2  -8    6.16    1.35
  -8   1  -2   10.61    1.75
   8  -2   1    6.15    1.45
  -2  -8   1    2.93    1.12
  -2   8  -1    7.01    1.44
   2   8   1    6.49    1.25
  -1   8   2    5.54    1.38
   8  -1  -2    6.32    2.04
   8  -1  -2    4.95    0.82
   2   1  -8    4.51    1.18
  -2   1   8    3.62    1.26
   2  -8  -1    4.44    1.17
   2  -1   8    5.29    1.28
   1   2   8    5.32    1.70
  -2  -2  -8    6.45    1.30
  -2  -8   2    4.55    1.18
  -2  -2  -8    4.28    1.81
   8  -2   2    6.07    1.39
  -8   2   2    5.03    1.57
  -2  -8  -2    4.53    1.33
  -8  -2  -2    6.04    1.80
  -8  -2   2    4.90    1.53
  -8   2  -2    7.28    1.64
   2   8  -2    5.06    1.26
   2   8   2    4.45    1.57
   8   2  -2    7.26    1.74
   8   2   2    7.73    1.60
   8  -2  -2    4.27    0.82
   2   2  -8    4.82    1.28
   2   2   8    3.40    1.46
   2  -8  -2    4.21    1.33
   2  -2  -8    2.70    1.71
   2   8   2    4.76    1.34
   8  -2  -2    6.99    1.58
  -2   8  -2    5.91    1.42
  -2   8   2    4.61    1.49
   2  -2  -8    4.51    1.31
   2  -2   8    4.11    1.11
  -2   2   8    7.73    1.23
  -2   2   8    6.72    1.57
  -2   2  -8    4.75    1.23
   3   0  -8    3.93    1.24
   3   0  -8    4.69    1.68
   0   8   3    3.15    1.44
   0   8   3    2.93    1.69
   8   0  -3    3.54    1.01
   8   0   3    3.97    1.49
   0   3   8    2.54    1.82
   3  -8   0    6.73    1.21
   0  -8  -3    6.56    1.61
   0   8  -3    1.73    1.19
   0  -3  -8    1.63    1.83
   0  -3   8    2.83    1.10
  -8   0   3    5.66    1.54
  -3  -8   0    3.19    1.40
   3   8   0    3.89    1.24
   8   0  -3    3.43    1.44
  -3   8   0    6.15    1.51
  -8   0  -3    5.72    1.65
   8  -3   0    3.26    1.27
   8   3   0    6.17    1.64
  -8  -3   0    2.28    1.61
  -8   3   0    2.22    1.44
  -3   0  -8    2.10    1.77
  -3   0  -8    3.88    1.08
  -3   0   8    5.14    1.43
   3   0   8    3.71    1.52
  -8  -1  -3    5.13    1.80
   1   8   3    2.77    1.88
   1  -3   8    0.36    0.95
  -1   3   8    4.05    1.77
   8  -1   3    4.30    1.45
   8   1  -3    6.38    1.67
   8   1  -3    3.44    1.03
   1   3  -8    0.73    1.13
  -3   1  -8    3.37    1.21
  -8   1   3    3.15    2.73
   3  -8   1    3.17    1.03
   3   8  -1    3.82    1.27
  -3   8   1    3.39    1.51
   3   1   8    3.51    1.44
   8  -3  -1    4.86    1.55
  -1  -3  -8    2.11    1.96
  -8  -3   1    2.98    1.53
   3  -1  -8    1.51    1.30
   3  -1  -8    2.27    1.76
  -8   3  -1    1.98    1.55
  -3  -8  -1   -0.13    1.23
  -3  -1   8    4.47    1.35
   8   3   1    2.99    1.71
   1   8   3    5.18    1.50
   1  -8  -3    4.01    1.54
  -1  -3   8    1.86    1.05
  -8   1  -3    4.04    1.76
   1  -3  -8    5.32    2.04
  -8  -3  -1    3.62    1.66
   1  -3  -8    0.87    1.17
   8  -1  -3    2.36    1.43
   8  -3   1    4.87    1.36
   8   3  -1    2.42    1.65
   1   8  -3    2.67    1.23
   3  -1   8    5.67    1.31
   3   1  -8    5.64    1.72
   8   1   3    6.73    1.81
   1   3   8    3.04    1.47
   3  -8  -1    0.88    1.20
  -1   8   3    5.02    1.63
  -1   8   3    3.43    1.45
  -3  -1  -8    4.47    1.81
   8  -1  -3    2.66    0.98
  -8  -1   3    4.73    1.52
  -3   1   8    0.89    1.57
   3   1  -8    1.98    1.23
  -1   3  -8    0.46    1.12
  -3   1   8    2.98    0.89
  -1  -8  -3    3.92    1.54
  -3  -1  -8    1.34    1.07
  -3   8  -1    5.41    1.51
   8   2  -3    4.97    1.94
   8  -2   3    2.73    1.34
  -3  -2   8    1.18    1.28
   3  -2  -8    4.99    1.95
   8  -3  -2    4.66    1.64
   8  -3  -2    2.26    0.77
   3  -2  -8    2.43    1.27
  -8  -3   2    2.85    1.62
  -8   3  -2    3.46    1.49
   2   8   3    0.92    1.41
  -3   2  -8    1.53    1.22
  -2   3   8    0.36    1.60
  -3  -8  -2    0.86    1.62
  -2   3   8    1.65    1.29
   2   8   3    6.95    1.88
  -2  -3  -8   -0.95    1.92
   2  -3   8    2.73    1.03
   3   8  -2    2.07    1.23
   2  -8  -3    0.03    1.45
   8   3   2    3.59    1.62
   3   2   8    1.47    1.63
  -3   8   2    3.62    1.54
  -8  -2  -3    0.91    2.12
   2   3  -8    3.55    1.26
  -8   2  -3    1.22    1.66
  -8  -2   3    3.40    1.71
   2   3   8    0.47    1.52
  -3   2   8    1.69    1.09
  -3  -2  -8    6.76    2.06
   3   8   2    4.11    1.78
   3   8   2    4.95    1.37
  -3   2   8    2.16    1.82
   8  -2  -3    2.75    1.00
   8  -3   2    1.03    1.28
  -2   8   3    2.72    1.60
   8  -2  -3    2.24    1.57
  -8  -3  -2    3.68    1.69
   3  -2   8    1.98    1.51
   3  -8  -2    2.49    1.38
  -2  -3   8    1.02    1.93
  -2   3  -8    3.36    1.28
  -3  -2  -8    0.54    1.18
  -3  -8   2    4.15    1.33
   2  -3  -8    4.75    2.10
   2  -3  -8    2.50    1.27
   8   2   3    3.32    1.63
   8   3  -2    4.72    1.84
  -8   3   2    2.73    1.56
   3   2  -8    2.03    1.23
  -2  -8  -3    0.06    1.48
  -2   8   3    3.20    1.76
   2   8  -3    2.47    1.24
   3  -3  -8   -1.43    2.71
   8   3   3    6.41    2.04
  -8  -3   3    3.06    1.62
  -8   3   3    5.01    2.28
  -8  -3  -3    3.07    2.06
   3   8   3   -3.58    2.15
   3   8   3    1.60    1.54
   8  -3  -3    3.31    1.55
  -3  -8  -3    4.33    1.78
   8  -3   3    3.72    1.33
   8   3  -3    1.59    2.01
   3  -3   8    2.72    1.58
   3   3  -8    2.28    1.29
   3   3   8   -2.32    2.08
  -3   3  -8   -1.15    1.25
  -3   3   8   -0.63    1.32
   3  -3  -8    0.86    1.41
   3  -8  -3   -0.96    1.53
  -3  -8   3    3.59    1.36
  -3  -3  -8    1.31    2.22
  -3  -3   8    3.49    1.31
   8  -3  -3    0.92    0.98
  -3   3   8    0.03    1.83
   3   8  -3   -0.05    1.28
  -3   8   3    1.13    1.55
   8   4   0    4.04    2.04
  -8   0   4    6.35    1.90
   8   0   4    2.54    1.49
  -8   0  -4    9.27    2.13
   4  -8   0    1.22    1.17
   4   8   0    1.42    1.33
   8   0  -4    0.52    1.13
   0   4   8    2.83    2.05
   8  -4   0    4.58    1.38
   0   8   4    1.01    2.11
   0   8   4    3.69    1.73
   0  -4  -8    3.06    3.04
   8   0  -4    1.53    1.93
   4   0   8    3.53    1.57
   0  -8  -4    1.72    1.67
   4   0  -8    3.93    1.95
   4   0  -8   -0.98    1.41
  -4   0  -8    3.26    1.28
   0   4  -8    5.55    1.46
  -4  -8   0    4.25    1.57
  -4   8   0    1.22    1.66
  -8  -4   0    3.93    1.93
  -8   4   0    4.83    1.66
  -4   0   8    2.51    1.45
   8  -1   4    2.02    1.53
   4  -1  -8    1.70    1.54
   1   4  -8    1.90    1.28
   4  -1  -8    4.43    1.93
   8  -4  -1    1.31    1.56
  -8   1   4    2.66    1.84
   4   8  -1    6.31    1.57
  -4  -1   8    4.42    1.69
   1   8   4    2.14    1.70
  -1   4   8    2.68    1.90
   1  -8  -4    2.37    1.95
   8   1  -4    3.32    1.70
  -1   4   8    1.45    1.56
   4   1   8    1.67    1.70
  -4   8   1    4.78    1.71
  -4   1  -8    1.58    1.30
  -4  -8  -1    2.70    1.62
   1   8   4    2.78    2.18
   8   4   1    1.57    2.16
  -8  -1  -4    0.68    1.99
  -8  -4   1    3.19    1.87
   8   1  -4    1.92    1.16
  -1  -4  -8    1.63    3.16
   4  -8   1    0.67    1.35
  -1  -8  -4    1.40    1.78
  -8   4   1    5.01    1.91
   1   4   8    4.22    1.94
   1  -4  -8    4.94    2.80
  -4  -1  -8    2.17    2.16
  -1   4  -8    1.60    1.30
  -4  -1  -8    4.40    1.27
   8  -1  -4    4.56    1.83
   8  -4   1    6.13    1.59
   4  -8  -1    3.13    1.33
   8   4  -1    6.38    1.99
   4   1  -8    2.60    1.45
  -8  -4  -1    0.88    1.73
  -1   8   4    4.31    1.73
   4  -1   8    2.27    1.42
  -4   8  -1    6.48    1.78
   4   8   1    0.22    1.36
  -1   8   4    1.47    1.96
   8   1   4    2.35    1.74
  -8  -1   4    2.68    1.83
  -8   1  -4    3.47    1.75
   8  -1  -4    2.54    1.16
  -4   1   8    0.44    1.77
  -4  -8   1    3.64    1.41
  -2  -4  -8    0.39    2.18
   4  -2  -8    5.01    2.24
   2   4  -8    1.99    1.36
   2  -8  -4    4.55    1.97
   4  -2  -8    2.85    1.51
  -4   8   2    4.87    1.75
  -4  -2   8    2.48    1.59
   4   2   8    6.22    2.14
  -8   2   4    2.27    1.93
  -4  -8  -2    7.81    2.22
   8  -2   4    4.06    1.54
  -8  -4   2    0.58    1.58
   8  -4  -2    0.58    1.41
  -8  -2  -4    1.79    2.82
   2   8   4   -1.04    2.25
   8   4   2   -0.74    1.97
  -2   4   8    0.40    1.98
   2   8   4    3.39    1.79
   4   8  -2   -0.04    1.37
   8   2  -4    2.49    2.12
   8   2   4    5.34    1.80
  -2   8   4   -0.72    2.00
   4   2  -8    1.24    1.51
  -4   2   8    0.02    1.67
  -2  -8  -4    1.30    1.78
   4  -2   8    4.51    1.42
  -4  -2  -8   -0.30    2.25
   2  -4  -8    3.04    2.21
  -8  -2   4    0.35    1.72
  -8   4   2    0.03    1.90
   8  -2  -4    1.97    1.22
   8   4  -2    6.40    2.16
  -4  -2  -8    1.30    1.33
   2   4   8   -0.76    2.10
   4  -8  -2   -0.02    1.52
   4   8   2    2.30    1.48
   8  -4   2    0.06    1.36
   8  -2  -4    4.65    1.89
  -2   4  -8    1.58    1.44
  -4  -8   2    4.25    1.48
  -2   8   4    2.34    1.78
  -8  -4  -2    0.76    1.98
   3   8   4    2.56    1.91
   3  -8  -4    4.68    2.04
  -8   3   4    2.28    2.10
  -4  -8  -3   -0.06    2.24
   8  -4  -3    1.16    1.82
   4  -3  -8   -0.40    1.67
   3   8   4    1.56    2.64
  -8  -3  -4   -0.82    2.39
  -3   4   8    1.26    2.14
  -3   4   8    3.42    1.98
   4   3   8    2.34    1.79
  -4   8   3   -1.44    1.64
   8  -4  -3    0.17    1.54
   4  -3  -8    2.87    2.08
   8   3  -4   -3.58    2.27
  -8  -4   3    3.76    1.82
   3   4  -8    1.06    1.48
  -3  -4  -8    2.88    2.48
   8   4   3    6.42    2.45
   8  -3   4    1.49    1.43
  -8  -3   4    1.59    2.13
  -4  -8   3   -1.59    1.48
  -3   8   4    2.74    1.78
  -4  -3  -8    1.05    2.75
  -3  -4   8   -1.65    1.39
  -4  -3  -8    0.38    1.51
   3   4   8    3.59    2.39
   3  -4  -8    0.15    2.25
   3  -4  -8    2.52    1.67
  -8   4   3    3.55    2.42
   4   3  -8    3.68    1.66
   4  -8  -3   -0.83    1.87
   4   8   3    4.40    2.54
  -3  -8  -4    0.07    1.85
   8  -3  -4    2.23    2.01
  -8  -4  -3    1.45    2.17
   8   4  -3   -1.40    2.30
   4  -3   8    4.39    1.39
   8  -4   3    1.67    1.45
   8  -3  -4    0.46    1.28
   4   8   3    0.69    1.71
   8   3   4   -0.30    2.00
  -4   3   8    2.34    2.15
   4   8   4    3.47    5.12
  -4   4   8    3.57    2.60
   4  -4  -8    1.67    1.87
   4   4  -8   -0.86    1.69
   4   4   8    3.82    2.14
  -8  -4   4    4.20    2.11
  -4   8   4   -1.14    1.81
   4  -8  -4    4.72    2.03
   4  -4  -8    7.10    2.66
  -4  -4  -8   -0.13    2.58
   4   8   4    1.66    2.12
   8  -4  -4    0.93    2.24
  -4  -8   4    2.67    1.69
  -4  -8  -4   -0.84    2.46
  -4  -4   8    1.06    1.69
  -8   4   4    4.58    2.30
   8   4   4    3.57    2.46
  -8  -4  -4    6.34    2.74
   8  -4  -4   -1.81    1.56
   8  -4   4   -2.47    1.49
   0   5  -8    3.45    1.59
   0  -8  -5   -1.47    2.22
   8   0   5   -3.08    1.80
  -5   8   0   -0.70    1.86
   5   0  -8   -1.12    2.66
   0   8   5    4.51    2.11
  -5   0   8   -0.07    1.68
  -8  -5   0    4.47    1.95
   5   0  -8    1.23    1.58
  -8   0   5    3.36    1.95
  -5  -8   0    4.62    1.87
   0   5   8    3.44    2.39
   5  -8   0    0.51    1.38
   8   0  -5    2.72    1.93
   8   0  -5    0.35    1.42
  -8   0  -5    7.96    3.56
   0  -5  -8    2.06    2.56
   5   0   8    3.27    1.74
   8  -5   0    1.85    1.86
   0   8   5   -2.83    2.56
   0   5   8    1.51    1.70
   1   8   5    1.16    2.69
   8  -5  -1   -0.21    1.57
   8   5   1    0.18    2.67
   5  -8   1   -0.59    1.37
   5   8  -1    1.20    1.59
  -5  -8  -1    0.40    1.89
  -8  -1  -5    0.57    2.21
   1   5  -8    0.40    1.42
   1  -8  -5    2.47    2.14
   1   8   5   -0.14    2.04
  -5  -1   8   -3.56    1.91
   8   1  -5   -1.05    1.37
   5  -1  -8   -1.54    1.67
  -5   8   1   -0.92    1.79
  -1   5   8   -2.08    2.51
  -1   5   8   -1.38    1.62
   5  -1  -8    1.32    2.33
   8   1  -5    2.20    2.54
  -8  -5   1    1.79    2.08
   5   1   8   -1.47    2.04
   8  -1   5    3.13    1.87
  -8   1   5    4.44    2.12
  -1  -5  -8   -3.35    2.24
   8  -5   1    0.14    1.64
   5  -1   8    3.20    1.71
  -1  -8  -5   -0.67    2.07
  -1   5  -8   -0.36    1.56
  -5  -8   1    2.18    1.80
  -8  -1   5   -0.66    1.96
   8   1   5    1.93    2.00
  -1   8   5    0.16    1.99
   1   5   8    1.69    2.30
  -1   8   5    2.00    2.63
  -8  -5  -1    2.03    1.99
  -5   1   8    1.84    2.10
   5   8   1    1.94    1.66
   8  -1  -5    2.06    1.97
   8  -1  -5    0.88    1.46
   5   1  -8   -0.01    1.53
   1  -5  -8    4.22    2.48
   8   5  -1   -1.21    2.63
   5  -8  -1    0.98    1.52
   2  -8  -5   -1.99    2.14
  -5  -8  -2    3.01    2.17
   2   8   5   -0.50    1.98
  -5   8   2    0.95    1.85
   5   2   8   -1.79    2.15
   8  -5  -2    0.68    2.04
  -2   5   8   -1.18    1.81
  -2  -5  -8   -1.19    2.39
  -2   5   8    2.15    2.60
   8   2  -5    2.95    2.60
   8   5   2    3.87    2.80
   5  -2  -8   -1.11    2.26
   5  -2  -8   -2.12    1.64
   2   5  -8    1.22    1.69
  -8  -2  -5   -1.09    2.76
  -8  -5   2    1.54    1.94
  -8   2   5    2.89    2.32
   2   8   5    0.36    4.25
   8   2  -5    2.01    1.54
   8  -2   5   -0.61    1.68
   8  -5   2    0.21    1.49
   8   2   5    1.41    2.36
  -5   2   8    4.20    2.31
  -2  -8  -5    3.08    2.19
   8  -2  -5    1.04    1.47
  -2   8   5    3.44    2.76
   5   8   2    1.16    1.83
  -5  -8   2    3.71    1.82
   5  -8  -2    0.55    1.87
   5   2  -8    3.07    1.90
   2  -5  -8   -2.50    2.39
  -8  -5  -2    1.50    2.38
   2   5   8    3.13    2.66
  -2   8   5   -4.06    1.94
  -8  -2   5    0.01    2.16
   8  -2  -5    2.56    2.19
   5  -2   8    1.76    1.62
  -5  -8  -3    1.61    2.12
   8  -3   5    4.75    1.74
  -8  -5   3   -0.41    2.21
  -3  -5  -8    1.08    2.49
   3   5  -8    1.50    1.77
   8   3  -5   -2.40    1.58
   5  -3  -8    1.84    2.58
   5  -3  -8    2.97    2.02
   3   8   5   -1.04    2.93
  -8   3   5   -0.97    2.38
   5   3   8    0.40    2.32
  -3   5   8   -1.13    2.87
  -3   5   8   -0.63    1.92
   8   5   3    5.13    2.76
  -5   8   3    2.56    1.91
  -5  -3   8    1.77    2.03
  -8  -3  -5    4.42    3.01
   3   8   5    3.58    2.14
   8  -5  -3    0.68    1.86
   3  -8  -5   -2.13    2.34
   5  -8  -3   -1.16    2.12
   5   8   3    3.52    2.06
   8  -3  -5    0.28    1.62
  -8  -3   5    3.20    1.92
  -8  -5  -3    4.64    2.55
   8  -3  -5    3.23    2.48
  -8   5   3   -0.15    2.51
  -5  -3  -8   -0.60    3.06
  -3  -8  -5    5.26    2.10
  -5   3   8    1.06    2.46
   3  -5  -8   -0.38    2.62
   8  -5   3    4.54    1.61
   3   5   8    1.10    2.56
  -3  -5   8    0.62    1.63
  -5  -8   3    3.14    1.86
   5  -3   8    1.14    1.58
   5   3  -8    0.47    1.75
   8   3   5    4.33    2.20
  -3   8   5    4.19    2.18
   4  -8  -5   -3.73    2.24
   5  -4  -8    5.17    2.95
   5  -4  -8    2.47    2.09
   4   5  -8    4.04    2.09
  -5  -8  -4    3.88    3.02
  -5   8   4   -0.86    1.98
  -4   5   8   -2.98    3.35
   4   8   5    3.07    2.48
   5   4   8   -0.16    2.58
   8  -4   5    3.71    1.77
  -4  -5  -8   -1.88    3.10
   8   5   4   -2.08    2.98
  -8  -4  -5   -5.74    2.80
   8  -5  -4    1.27    2.02
   4   8   5    1.60    4.23
  -5  -4   8    0.11    1.95
  -8  -5   4    2.68    2.53
   5   4  -8   -2.39    2.11
   4  -5  -8    1.48    1.93
   4   5   8   -4.18    2.52
   4  -5  -8    1.55    2.97
  -8  -5  -4   -2.53    2.81
  -4   8   5    0.59    1.95
  -5   4   8    1.27    2.46
   8   4   5   -2.68    2.51
   5   8   4   -1.78    2.24
  -4  -5   8   -2.63    1.87
  -8   5   4    4.45    2.84
   5  -8  -4    1.41    2.35
  -8  -4   5    1.11    2.32
   8  -4  -5   -0.87    2.16
   8  -4  -5   -4.34    1.91
  -5  -4  -8    1.65    2.90
   8  -5   4   -3.19    1.60
  -4  -8  -5   -0.17    2.49
  -5  -8   4    2.25    2.12
   6  -8   0    2.47    1.73
   8  -6   0    0.63    1.80
  -8   0   6   -1.22    2.28
   8   0  -6    3.68    1.83
   8   0   6    1.65    2.24
   0   8   6    2.02    2.41
   6   0  -8   -0.60    1.84
   6   0   8   -1.62    1.73
  -8  -6   0   -3.73    2.17
  -6   0   8    3.29    2.22
  -6  -8   0    4.26    2.42
   0  -6  -8   -0.79    2.56
   0   6   8    0.29    2.83
   0  -8  -6    2.94    2.52
   0   8   6    1.48    3.04
   0   6   8    0.25    2.10
   8   0  -6   -1.38    2.41
   1   8   6   -1.33    3.12
   8   1  -6    1.60    1.88
   6  -8   1    1.63    1.59
   6   1   8   -0.70    2.14
   8  -6  -1    0.88    1.96
   1   8   6   -0.15    2.33
  -8   1   6    3.45    2.49
   8   6   1    2.33    3.46
  -1  -6  -8    2.63    2.86
  -8  -6   1    0.44    2.48
   6  -1  -8   -1.85    3.27
  -1   6   8   -3.99    2.02
   8  -1   6    1.22    1.84
   8   1  -6   -1.93    3.06
   6  -1  -8   -1.58    1.97
  -1   6   8   -1.48    3.02
  -6  -8  -1    4.54    2.34
   1  -8  -6   -0.92    2.62
  -8  -6  -1    3.70    2.44
  -1  -8  -6    7.14    2.58
  -6  -8   1    0.38    2.11
   8   1   6    1.69    2.35
   8  -1  -6   -0.45    1.83
  -6   1   8   -2.02    2.61
  -8  -1   6    5.49    2.19
   6  -1   8   -0.94    1.91
   6   1  -8    3.51    2.03
   6   8   1   -0.55    2.07
   8  -1  -6    2.51    2.77
   8  -6   1    4.13    1.85
   6  -8  -1   -0.50    1.90
  -1   8   6    4.82    3.64
  -1   8   6    4.20    2.25
   1  -6  -8    7.47    2.90
   1   6   8   -3.66    2.99
   1   6   8    2.13    2.19
   2   8   6   -2.71    2.27
   2  -8  -6    2.97    2.29
   6  -2  -8    1.89    2.09
   6  -8   2    1.20    1.51
  -2  -6  -8    2.93    2.73
   8   6   2    5.16    3.26
  -8  -6   2   -1.96    2.06
  -6  -8  -2    0.32    2.54
   6  -2  -8    0.13    3.15
  -6   8   2   -2.34    2.07
  -8   2   6    1.73    2.57
   8  -2   6    1.90    2.03
   6   2   8    2.58    2.22
   8  -6  -2    2.77    1.87
  -6  -2   8   -1.56    2.30
  -2   6   8   -1.28    3.46
  -2   6   8    1.82    2.28
   2   8   6   10.24    3.59
   8   2  -6    1.51    1.95
   6   8   2    3.45    2.48
   8  -2  -6    1.84    1.82
   8  -2  -6   -0.38    2.55
   6  -8  -2   -4.40    2.11
   2  -6  -8   -4.30    2.77
   6   2  -8    2.34    2.11
  -6  -8   2    1.11    2.16
   8   2   6    0.13    2.17
   2   6   8    3.68    3.07
  -8  -2   6   -1.92    2.63
  -2  -8  -6   -0.66    2.73
  -2   8   6    4.70    2.30
  -6   2   8   -4.96    2.25
   6  -2   8    0.44    1.87
   8  -6   2   -1.35    1.64
  -8  -6  -2   -1.70    2.48
   3   8   6   -3.66    3.33
   8  -3   6   -0.23    1.96
   8   3  -6    1.72    1.91
   6  -3  -8   -0.54    3.08
  -6   8   3    2.02    2.17
  -3  -6  -8    6.18    2.94
  -3   6   8   -0.89    2.98
  -3   6   8    6.28    2.43
   3   8   6    1.87    3.16
   6   3   8    5.03    2.97
   8  -6  -3   -3.05    2.71
  -6  -3   8    1.36    2.75
   8   6   3   -0.67    3.56
  -8  -3  -6    0.84    3.92
   6  -3  -8    2.84    2.32
  -6  -8  -3    0.98    3.54
  -8  -6   3    4.40    2.73
   3  -8  -6   -1.04    3.04
   8   3   6   -2.65    2.64
   6   8   3    0.41    2.54
  -6   3   8   -3.07    3.65
  -3  -8  -6    1.92    3.08
  -3   8   6   -1.49    2.48
  -8  -6  -3    3.39    3.30
  -6  -8   3   -3.50    2.27
   3  -6  -8    3.47    2.86
   8  -3  -6    1.53    2.01
  -8  -3   6   -1.23    2.64
   6  -3   8    0.45    1.91
   6   3  -8    2.53    2.36
   3   6   8   -2.44    2.95
   6  -8  -3   -1.55    2.51
   8  -6   3    1.11    1.72
   8  -3  -6    3.54    2.84
  -9   0   0    3.66    2.03
   0  -9   0    0.01    1.32
   0   0  -9    0.42    1.28
   0   0   9    2.32    1.57
   0   9   0    1.50    1.45
   9   0   0    1.07    1.60
  -9   0   1    2.04    1.76
  -1  -9   0   -2.41    1.40
  -1   9   0    3.79    1.63
   0  -1  -9   -0.18    2.21
   0  -1  -9    0.83    1.40
   0  -1   9   -1.09    1.47
   0   1  -9   -0.42    1.27
   0   1   9    1.50    2.00
   1  -9   0    3.56    1.35
   1   9   0    2.04    1.42
   9   0  -1   -1.42    1.72
   9   0   1    1.48    1.72
   0   9  -1    3.26    1.46
   0   9   1    1.68    1.60
   1   0  -9   -0.22    1.38
   1   0   9   -1.45    1.52
   9  -1   0    1.31    1.61
   9   1   0    3.20    1.75
   0  -9   1   -1.67    1.21
  -9  -1   0    0.24    1.86
  -9   1   0    0.23    2.14
  -1   0  -9   -0.40    1.21
  -1   0   9    0.87    1.67
   0  -9  -1   -0.67    1.43
   1   9  -1   -0.59    1.48
  -1   1   9   -0.32    1.90
  -1   9  -1   -0.22    1.63
  -1   9   1    0.29    1.68
   1  -1   9    2.25    1.47
   1   1  -9   -1.07    1.33
   1   1   9    0.27    1.78
  -9  -1  -1   -0.39    1.91
  -9  -1   1    1.94    1.79
  -9   1   1   -0.26    1.96
  -1  -9  -1    1.18    1.55
  -1  -1  -9   -0.81    1.22
  -1  -1   9   -0.49    1.58
   1  -1  -9   -1.86    1.29
   9  -1   1   -1.23    1.47
   9   1  -1    3.01    1.88
   9   1   1    3.99    1.89
  -1   1  -9   -0.13    1.23
   1  -9  -1   -1.98    1.43
   1  -1  -9    6.29    2.13
   9  -1  -1    3.99    1.94
   1   9   1    1.08    1.53
  -2   0  -9    0.51    1.27
  -9   2   0   -0.84    1.96
   0   2  -9   -0.30    1.31
   0   2   9    1.81    1.78
   2  -9   0   -1.72    1.32
   2   9   0   -1.17    1.45
   9   0  -2    1.91    1.75
  -2   0   9   -2.39    1.67
   9   0   2    0.05    1.56
   0  -2  -9    4.76    2.37
  -9  -2   0    1.82    1.83
  -2  -9   0   -1.39    1.48
  -2   9   0   -1.21    1.73
   0  -2  -9   -1.14    1.44
   0  -2   9   -0.96    1.34
   0   9  -2    0.99    1.46
   0   9   2    0.24    1.64
   2   0  -9   -0.05    1.52
   2   0   9    1.56    1.62
   9  -2   0   -0.50    1.45
   9   2   0    0.39    1.84
   0  -9  -2   -0.82    1.65
  -9   0  -2    0.79    2.47
  -9   0   2    2.61    1.77
   1   9   2   -2.32    1.62
   2  -1  -9   -0.24    2.51
   1  -9  -2   -1.45    1.68
   1   2  -9    1.45    1.53
  -2   9   1   -1.91    1.69
  -9  -2   1    3.91    2.07
  -1   9  -2   -1.90    1.55
  -2   1  -9   -0.37    1.46
   9  -1   2    2.82    1.60
   9   1  -2   -0.80    1.75
  -9   1   2   -2.40    1.89
  -2  -9  -1   -1.40    1.59
   2   1   9    4.68    1.99
   9  -2  -1   -0.89    1.60
   2  -1  -9   -1.84    1.49
  -1  -2  -9   -2.51    2.20
  -9   2  -1    1.83    1.98
  -9  -1  -2    1.62    2.13
   9   2   1    0.05    1.91
  -2  -1   9    0.98    1.73
  -1  -2  -9   -0.22    1.40
   1  -2   9   -2.13    1.31
  -1   2   9    1.36    1.75
   2   9  -1    1.32    1.43
  -1   9   2   -0.25    1.73
  -9   2   1    0.73    2.74
   9   1   2    1.74    1.64
   9  -2   1   -1.96    1.58
   9   2  -1    0.45    1.88
  -2  -1  -9   -0.01    1.38
   2  -1   9    1.79    1.58
  -9  -2  -1    2.10    2.06
  -9  -1   2    0.07    1.92
  -1  -2   9    1.01    1.51
  -1   2  -9    1.81    1.34
  -1  -9  -2   -0.30    1.63
   1  -2  -9    0.54    2.31
   1  -2  -9    3.13    1.65
  -2   1   9   -1.74    1.74
   1   9  -2   -0.28    1.49
   1   2   9   -0.32    1.91
   2  -9  -1   -2.35    1.44
   2   1  -9   -0.51    1.41
   2   9   1   -2.90    1.59
   9  -1  -2    0.96    1.93
  -2   9  -1   -1.65    1.77
  -9   1  -2    1.43    2.23
  -2  -9   1   -1.14    1.45
   2  -9  -2   -1.98    1.64
   2  -2  -9   -0.18    2.24
   2  -2  -9    1.17    1.50
   2  -2   9    3.57    1.41
  -2  -2  -9    3.57    2.63
  -2   2   9    5.50    1.55
  -2   9  -2    1.35    1.90
  -2  -2  -9    2.73    1.47
  -2  -9   2    1.29    1.71
  -2  -2   9   -0.56    1.63
  -2   2  -9   -0.86    1.40
  -2   2   9   -0.55    2.00
  -9  -2  -2    0.62    2.07
  -9  -2   2   -1.94    1.95
  -9   2  -2    2.45    2.18
  -9   2   2   -1.74    2.10
  -2  -9  -2   -3.19    1.67
  -2   9   2    1.59    1.89
   9   2  -2   -0.37    2.09
   9   2   2    4.29    2.15
   2   2  -9   -0.72    1.47
   2   2   9   -0.76    1.81
   2   9  -2   -1.83    1.48
   2   9   2    3.08    1.78
   9  -2  -2    0.87    1.83
   9  -2   2    1.07    1.57
  -9   0   3    2.95    2.15
  -3  -9   0   -0.86    1.60
  -9   0  -3    0.97    2.78
   0   9  -3    4.33    1.72
   0   9   3    1.74    2.01
   3   0  -9   -3.07    1.53
  -9  -3   0   -0.92    2.03
  -3   9   0    3.43    1.92
   0  -3  -9    4.20    5.08
   0  -3  -9    0.62    1.60
   0  -3   9   -0.88    1.33
   0   3  -9   -1.40    1.38
   0   3   9   -2.11    2.14
   3  -9   0    3.30    1.49
  -3   0   9    1.68    1.98
  -9   3   0   -2.58    1.92
  -3   0  -9   -0.54    1.72
   9   3   0    0.09    2.14
   9  -3   0   -1.46    1.74
   0  -9  -3    3.14    1.95
   3   9   0    1.16    1.63
   9   0  -3    4.43    1.82
   9   0   3   -0.05    2.03
   3   0   9   -0.38    1.72
   3  -1  -9    1.49    1.69
  -1   3   9   -0.69    1.93
   9   1  -3    3.02    2.00
   1   3  -9    1.39    1.46
   9  -3  -1   -0.24    1.93
  -9  -3   1   -0.29    1.95
  -9  -1  -3   -1.06    2.49
  -3  -1   9   -2.40    1.72
  -1  -3  -9   -0.57    2.95
   1  -3   9   -0.19    1.34
   9  -1   3   -3.63    1.80
  -3   9   1    3.38    2.07
   1  -9  -3    3.24    2.19
   3   9  -1    2.82    1.84
   9   3   1   -3.69    2.17
  -1  -3  -9    3.26    1.56
  -3  -9  -1   -1.09    1.90
   3   1   9    4.44    1.98
   1   9   3   -1.89    1.84
  -9   1   3    3.44    1.98
  -3   1  -9    0.10    1.59
  -3   9  -1    1.16    2.00
   9  -3   1    0.66    1.71
  -9  -1   3   -0.50    2.00
  -1   9   3   -1.50    1.99
   9   1   3   -2.06    1.63
   3   1  -9    0.79    1.63
   1  -3  -9   -0.48    1.62
   1   3   9   -0.56    2.23
  -9   1  -3    0.93    2.41
   1  -3  -9   -1.53    3.56
   3  -1   9    1.33    1.65
  -3   1   9    2.52    1.80
  -1  -9  -3    0.82    2.12
  -9  -3  -1    3.81    2.42
  -3  -9   1    1.49    1.64
  -3  -1  -9    0.32    1.49
  -1  -3   9    1.58    1.46
  -1   3  -9    3.39    1.55
   9  -1  -3   -2.49    1.93
   9   3  -1   -4.30    2.26
   3   9   1   -0.17    1.55
   3  -9  -1    2.38    1.57
   1   9  -3    3.48    1.66
  -2   3   9    4.33    2.02
  -9  -3   2    0.56    2.30
  -2  -3  -9    0.19    1.51
   2  -9  -3    2.78    2.22
   9  -2   3   -0.15    1.80
   2   3  -9    3.27    1.61
  -2   3   9   -2.21    2.24
   2  -3   9    1.69    1.39
  -3  -2   9    3.75    1.97
  -3   2  -9   -0.18    2.53
   3  -2  -9   -0.86    1.62
   3   9  -2    1.53    1.76
   9  -3  -2    2.56    2.14
  -9  -2  -3    1.10    2.53
   3   2   9    0.93    2.36
  -9   2   3   -1.46    2.00
  -3  -9  -2   -0.90    1.87
   9   2  -3    1.66    2.42
  -3   9   2   -1.85    1.88
   2   9   3    1.60    1.96
   9   3   2    0.75    2.16
  -9   3   2   -0.18    2.25
  -9  -2   3    2.58    2.14
  -2   9   3    2.37    2.20
  -2  -9  -3    2.81    2.05
   9   3  -2    3.10    2.60
  -2  -3   9   -3.48    1.53
  -9  -3  -2    3.06    2.48
  -3  -9   2    2.22    1.71
   9   2   3    0.63    1.84
   9  -2  -3   -1.72    2.00
   3   2  -9    0.10    1.63
   2   3   9    2.89    2.01
   3  -9  -2   -1.07    1.78
   9  -3   2    3.36    1.70
   3   9   2   -1.49    1.89
  -3  -2  -9    1.27    1.54
   2   9  -3    0.40    1.75
  -2   3  -9    0.82    1.62
  -3   2   9   -3.43    2.28
   3  -2   9    1.32    1.54
   2  -3  -9    3.49    2.47
   2  -3  -9    0.57    1.69
   9   3   3   -0.44    2.44
   3   9   3    0.36    2.14
   9  -3  -3   -0.54    2.08
   9   3  -3   -0.66    2.55
   3  -3  -9   -0.54    1.77
  -3  -3  -9   -2.70    1.72
  -3   3   9   -4.37    2.50
  -3   9   3   -4.15    2.04
   3  -9  -3    2.15    2.07
   3  -3  -9    4.69    3.17
  -3  -9  -3   -3.29    2.26
  -9  -3  -3   -2.14    2.83
  -9  -3   3    0.23    2.02
  -9   3   3    4.91    2.63
   3   3   9   -1.24    2.15
   3  -3   9    1.04    1.47
   3   3  -9   -2.24    1.79
   0  -9  -4   -1.82    2.02
   9   0   4   -0.45    1.90
   0   4  -9   -2.37    1.66
   0   4   9   -1.26    2.34
   4  -9   0    1.82    1.67
   4   9   0    1.31    1.86
   9   0  -4   -0.75    2.22
   0  -4  -9    6.67    3.23
   4   0   9    0.49    2.00
   9  -4   0    2.39    2.08
   9   4   0    0.56    2.66
  -4  -9   0   -0.72    1.96
  -9  -4   0    2.83    2.62
  -4   0   9    1.35    2.24
   0   9   4   -0.87    2.03
   4   0  -9    2.10    1.83
  -4   9   0    1.73    2.05
  -9   0   4   -1.17    2.40
   0  -4  -9    0.46    1.63
   9   1  -4   -1.49    2.31
   1  -9  -4   -1.22    2.07
   1   4  -9    2.32    1.76
  -1  -4  -9   -1.24    1.83
   1   9   4    2.19    2.08
   4   9  -1    1.34    1.92
  -1   4   9    1.43    1.98
  -1   4   9   -4.75    2.46
  -9  -4   1    0.95    2.20
   4  -1  -9   -1.59    1.67
   9  -1   4    1.46    1.76
  -4   9   1    1.24    2.07
   9   4   1    3.72    2.53
   9   1  -4    3.47    1.62
  -4  -1   9    1.43    2.01
  -9   1   4    2.94    2.52
  -4  -9  -1    0.16    2.03
   4   1   9   -1.01    1.87
   9  -4  -1   -1.88    1.94
  -1  -4  -9   -1.87    2.69
  -9  -1  -4    3.82    2.97
  -1   9   4   -2.52    2.02
  -1  -9  -4    0.94    2.33
   4   9   1   -3.50    1.87
   9   1   4    3.01    1.99
  -4  -9   1    0.96    1.94
  -1   4  -9   -0.38    1.66
   9  -4   1   -2.18    1.91
   9   4  -1    5.96    2.82
  -9  -4  -1    3.73    2.68
  -9  -1   4    0.59    2.20
   9  -1  -4   -2.67    2.34
   4  -1   9    1.54    1.86
   1  -4  -9   -2.14    2.84
   1  -4  -9    2.83    1.76
  -4   1   9   -0.41    1.94
   1   4   9    2.82    2.80
   4  -9  -1    3.60    1.82
   4   1  -9   -1.60    1.73
  -9   2   4    0.87    2.58
   9  -4  -2    0.82    2.05
  -2  -4  -9    4.94    2.78
   4  -2  -9   -5.77    3.54
   9   4   2   -1.13    2.81
   9  -2   4    1.11    1.75
   9   2  -4    1.93    2.81
   2  -9  -4    3.90    2.39
   4   2   9    0.72    1.89
  -4  -2   9   -0.23    1.95
  -2   4   9    4.86    2.92
  -4   9   2   -0.90    2.25
  -9  -2  -4    4.04    3.16
   2   9   4    3.83    2.15
  -9  -4   2   -1.25    2.14
  -2  -4  -9   -0.31    1.75
   2   4  -9   -0.21    1.66
   4  -2  -9    0.48    1.86
  -2   4   9   -1.23    2.07
  -4  -9  -2   -3.37    2.05
  -4   2   9    0.18    2.27
  -9  -4  -2    0.19    2.54
   2  -4  -9   -0.23    1.70
  -4  -9   2   -3.09    1.95
  -2  -9  -4    1.19    2.07
   9  -4   2   -0.02    1.68
   9   4  -2   -3.03    3.14
   2  -4  -9   -0.60    2.93
   4  -2   9    1.39    1.76
   4   2  -9   -0.82    1.93
   2   4   9    2.28    2.46
   4  -9  -2    1.01    1.98
   4   9   2    4.10    2.17
   9  -2  -4   -4.16    2.18
  -9  -2   4    3.30    2.12
  -2   9   4    1.49    2.17
   9   2   4    0.16    2.31
  -2   4  -9   -0.07    1.86
   9   4   3   -2.04    2.64
   3   4  -9   -4.33    1.99
  -3  -4  -9   -1.43    2.03
  -4   9   3    8.53    2.64
  -3  -4  -9   -1.22    3.20
   4  -3  -9   -0.55    2.98
   9  -3   4    0.43    1.94
  -3   4   9   -5.72    2.63
   4  -3  -9   -1.07    2.32
  -9  -3  -4    1.45    2.88
   3  -9  -4   -3.94    2.44
  -4  -9  -3    4.15    2.77
  -9   3   4   -4.59    2.77
   3   9   4   -1.16    2.57
  -9  -4   3   -0.52    2.64
   9  -4  -3    3.26    2.40
   4   3   9   -2.02    2.24
   9  -4   3   -1.34    1.85
  -9  -3   4    2.68    2.58
  -3  -9  -4    3.48    2.62
   3  -4  -9   -0.04    2.11
  -9  -4  -3   -0.77    2.90
  -4   3   9   -0.54    3.19
  -3  -4   9    2.25    2.01
   3   4   9    0.70    2.86
   3  -4  -9    1.29    3.29
   4   3  -9   -0.64    2.14
   4  -9  -3   -1.47    2.29
   9   3   4    1.65    2.81
   4   9   3    2.49    2.19
  -9   4   3    2.11    2.93
  -3   9   4   -1.21    2.52
  -4  -9   3    0.84    2.11
   9   0  -5    2.20    2.88
   9   0   5   -1.64    2.51
  -5  -9   0    1.74    2.35
   0  -5  -9    6.75    3.00
  -9   0   5   -2.67    2.60
   5   0   9    1.37    2.39
   9  -5   0    1.00    2.52
   5   9   0    2.61    2.80
   5   0  -9   -0.57    2.35
   9   5   0    4.00    3.50
  -5   0   9    2.67    2.56
   0  -9  -5    2.42    2.60
   0   9   5    1.78    2.52
  -9  -5   0    0.88    3.14
   0   5   9   -1.80    3.08
   0   5   9   -0.90    2.19
   5  -9   0    4.33    1.97
   1   9   5    2.99    2.61
  -1   5   9    7.29    2.33
  -9  -5   1    1.05    2.79
  -5  -1   9    1.21    2.75
   5  -9   1    1.03    1.70
   9  -1   5    1.57    2.64
   9   1  -5    2.17    3.26
   9   1  -5    2.69    2.12
   5  -1  -9    2.66    2.65
  -9   1   5   -2.29    2.51
  -5  -9  -1   -1.25    2.61
   9  -5  -1    0.20    2.28
  -5   9   1   -0.46    2.86
  -1  -5  -9   -0.09    3.15
   9   5   1    3.30    3.50
  -1   5   9    4.61    3.29
   1  -9  -5    6.28    3.06
   5   1   9   -4.02    2.24
   1   5  -9    0.17    1.92
   1   5   9    0.30    2.80
  -9  -1   5    2.43    2.88
   9   1   5    0.59    2.49
  -9  -5  -1   -5.23    2.92
   9  -1  -5   -0.28    2.30
  -5  -9   1    3.42    2.27
   9  -5   1    0.00    2.22
   5  -9  -1    0.85    1.98
   1  -5  -9    0.16    3.29
   5   1  -9   -3.06    2.31
  -1   5  -9    2.21    2.07
   5  -1   9    5.68    2.11
   5   9   1    1.74    2.28
  -5   1   9   -3.08    2.64
  -1  -9  -5    0.18    2.62
  -1   9   5    2.48    2.79
   2  -9  -5   -0.17    4.30
   2   9   5    3.06    4.02
  -2  -5  -9    4.08    3.26
  -2   5   9   -3.38    2.39
  -5   9   2   -0.63    2.64
  -5  -9  -2    1.00    4.58
  -9  -5   2   -3.55    4.22
  -9   2   5   -0.31    2.82
  -5  -9   2    3.12    2.29
  -9  -5  -2   -3.36    3.14
  -9  -2   5   -1.90    4.07
  -2  -9  -5   -1.02    2.83
  -2   9   5   -0.10    2.93
   2  -5  -9    0.95    3.38
   5   9   2   -0.45    2.30
 -10   0   0   -0.73    2.64
   0 -10   0   -1.82    1.81
   0   0 -10    3.31    1.87
   0   0  10    4.63    2.09
   0  10   0    3.00    2.02
  10   0   0   -0.50    2.09
 -10   0  -1    4.24    2.99
 -10   0   1   10.08    2.93
  -1 -10   0   -0.02    1.97
  -1  10   0    2.95    2.15
   0  -1 -10   -0.42    1.91
   0  -1  10    3.41    2.03
   0   1 -10    1.32    1.84
   0   1  10    3.19    2.25
   1 -10   0    4.04    1.83
   1  10   0    0.89    2.16
  10   0  -1    2.64    2.20
   1   0 -10    3.54    1.98
   1   0  10    3.88    2.15
  10  -1   0    2.94    2.35
  10   1   0    1.68    2.46
   0 -10  -1    2.95    2.06
   0  10  -1    1.30    2.15
   0  10   1    0.61    2.16
 -10   1   0    0.24    2.88
  -1   0 -10   -1.55    1.65
  -1   0  10    2.07    2.05
 -10  -1   0   -1.76    2.58
   1  10  -1    2.10    2.16
   1  10   1    3.99    2.19
  -1   1  10    1.29    2.25
 -10   1   1   -4.47    2.69
  -1 -10  -1    2.12    2.09
  -1 -10   1    3.39    1.82
  -1  -1 -10    3.02    1.85
  -1  -1  10   -2.17    2.15
  -1   1 -10    0.87    1.80
  10   1   1   -1.66    2.50
 -10  -1  -1   -1.82    2.70
 -10  -1   1   -0.27    2.49
   1   1  10    3.72    2.19
   1  -1 -10   -0.39    1.79
   1  -1  10    2.58    2.08
   1   1 -10    0.17    1.77
  -1  10  -1    5.03    2.24
  -1  10   1    4.23    2.27
   1 -10  -1    0.10    1.95
  10  -1  -1    5.23    2.37
  10  -1   1   -0.13    2.36
  10   1  -1    2.39    2.51
 -10   1  -1    2.85    2.89
  -2   0  10    0.11    2.41
   0 -10  -2   -2.95    2.13
  -2   0 -10    1.17    1.81
 -10   0   2    5.62    2.60
  -2 -10   0   -3.43    1.99
  -2  10   0    3.62    2.41
   0   2  10    5.15    2.52
   2 -10   0    1.21    1.85
 -10  -2   0   -2.72    2.71
 -10   0  -2    1.21    2.94
   0  -2 -10    2.14    1.83
   0  -2  10    1.78    1.95
   0   2 -10    2.05    1.90
  10  -2   0    0.48    2.12
  10   2   0    3.04    2.81
   2  10   0    1.97    2.06
  10   0  -2   -1.75    2.49
  10   0   2    3.32    2.03
   0  10  -2    2.56    2.04
   0  10   2    0.13    2.26
   2   0 -10    0.44    1.83
   1   2 -10    0.09    1.97
   1  10   2    2.62    2.28
 -10  -1  -2    6.69    3.10
 -10  -2   1    3.08    2.75
 -10   1   2    2.96    2.83
  -2 -10  -1   -1.10    2.09
  -2   1 -10    4.22    2.06
   2  10  -1   -0.94    2.32
  -2  10   1   -1.24    2.54
  -1  -2 -10   -0.26    1.90
   2  -1 -10   -0.59    1.94
   1 -10  -2    1.92    2.14
  -1   2  10    1.33    2.43
   2   1  10   -2.13    2.57
   1  -2  10    1.96    1.88
  10  -2  -1   -0.89    2.36
  -1  10  -2   -3.15    2.18
  10  -1   2    0.50    2.14
  10   1  -2    4.94    2.43
  10   2   1    1.43    2.41
   2  10   1   -0.97    2.10
   2 -10  -1    5.02    2.03
  -2  10  -1    1.95    2.33
  10   1   2   -0.14    2.69
  -1   2 -10    2.28    1.89
 -10  -2  -1   -1.52    2.93
 -10  -1   2    2.91    2.67
 -10   2   1   -4.85    2.95
   1  10  -2    2.08    2.09
  10  -2   1   -2.18    1.85
  10   2  -1   -3.30    2.41
  10  -1  -2   -3.61    2.30
  -2  -1 -10    2.12    1.82
  -1  -2  10    1.12    1.96
   2  -1  10    1.16    2.10
   2   1 -10   -2.09    1.87
   1  -2 -10    1.06    1.98
  -2   1  10   -4.79    2.34
  -1 -10  -2    2.97    2.24
   1   2  10    1.71    2.24
  -1  10   2   -2.59    2.56
  -2 -10   1   -2.32    1.96
 -10   2   2   -2.36    2.83
  -2  -2 -10    0.30    1.92
  -2  -2  10   -1.22    2.07
   2 -10  -2   -4.84    2.28
  -2 -10  -2    2.23    2.63
   2  -2  10    3.60    1.91
   2   2 -10   -1.44    2.38
   2   2  10    0.51    2.93
   2  10  -2   -2.39    2.22
   2  10   2   -1.45    2.67
  10  -2  -2   -0.12    2.93
  10  -2   2   -1.24    2.17
  10   2  -2    1.05    2.68
  10   2   2   -0.84    3.16
   2  -2 -10    0.17    2.18
 -10  -2   2   -0.28    3.11
  -2   2 -10   -2.70    2.03
  -2   2  10    3.59    2.36
  -2  10  -2    7.71    2.88
  -2  10   2   -5.47    2.77
 -10  -2  -2    9.72    3.41
  10   0   3    1.72    2.23
   0  -3 -10   -1.16    2.23
   0  -3  10   -1.32    1.89
   0   3 -10    3.28    2.05
   0   3  10   -1.55    2.62
   3 -10   0   -0.79    1.88
   3  10   0    0.04    2.35
 -10  -3   0   -0.52    3.18
  -3   0  10    2.66    2.74
   0 -10  -3   -2.38    2.74
  10   0  -3   -1.38    2.51
 -10   0   3   -0.39    2.68
  -3 -10   0    1.01    2.12
  -3  10   0    3.08    2.80
  10   3   0    7.53    3.08
  10  -3   0    1.51    2.99
   3   0 -10    2.11    2.39
   3   0  10    0.62    2.58
   0  10   3   -0.85    2.90
 -10  -3   1    4.45    3.18
  -3  10   1   -0.73    3.85
   3  10  -1   -2.65    2.51
   1  10   3   -0.27    2.96
 -10  -1  -3   -0.85    4.22
 -10   1   3    5.09    2.89
  -3 -10  -1    0.04    2.54
   1 -10  -3   -0.27    2.71
  -3  10  -1   -3.75    4.02
 -10  -3  -1    2.69    3.20
  -3 -10   1    0.38    2.11
  -1 -10  -3    1.91    2.79
  -1  10   3    1.85    3.77
 -10  -1   3   -0.10    2.86
   3  10   1    1.05    2.19
   0   0   0    0.00    0.00
;
_shelx_hkl_checksum              45810

