####################################################################### 
# 
# This file contains crystal structure data downloaded from the 
# Cambridge Structural Database (CSD) hosted by the Cambridge 
# Crystallographic Data Centre (CCDC).
# 
# Full information about CCDC data access policies and citation 
# guidelines are available at http://www.ccdc.cam.ac.uk/access/V1 
# 
# Audit and citation data items may have been added by the CCDC. 
# Please retain this information to preserve the provenance of 
# this file and to allow appropriate attribution of the data. 
# 
#######################################################################

data_5.IMSnI3-293K
_audit_block_doi                 10.5517/ccdc.csd.cc1ncdm1
_database_code_depnum_ccdc_archive 'CCDC 1530303'
loop_
_citation_id
_citation_doi
_citation_year
1 10.1021/acs.inorgchem.6b02764 2017
_audit_update_record             
;
2017-01-30 deposited with the CCDC.	2022-09-05 downloaded from the CCDC.
;
#=======================================================================

# 5. CHEMICAL DATA

_chemical_name_systematic        
; ?
;
_chemical_name_common            'Imidazolium Tin Iodide'
_chemical_formula_moiety         (C3N2H5)SnI3
_chemical_formula_structural     ?
_chemical_formula_analytical     ?
_chemical_formula_iupac          ?
_chemical_formula_sum            'C3 H5 I3 N2 Sn1'
_chemical_formula_weight         568.5
_chemical_melting_point          ?
_chemical_compound_source        ?
_chemical_absolute_configuration ?

#=======================================================================

# 6. CRYSTAL DATA

_symmetry_cell_setting           monoclinic
_symmetry_space_group_name_H-M   'P 1 c 1'
_symmetry_space_group_name_Hall  'P -2yc'
_symmetry_Int_Tables_number      7

loop_
_space_group_symop_id
_space_group_symop_operation_xyz
1 x,y,z
2 x,-y,z+1/2

_cell_length_a                   12.8760(8)
_cell_length_b                   9.4302(7)
_cell_length_c                   15.1306(10)
_cell_angle_alpha                90
_cell_angle_beta                 114.194(5)
_cell_angle_gamma                90
_cell_volume                     1675.8(2)

loop_
_twin_individual_id
_twin_individual_mass_fraction_refined
_twin_individual_twin_matrix_11
_twin_individual_twin_matrix_12
_twin_individual_twin_matrix_13
_twin_individual_twin_matrix_21
_twin_individual_twin_matrix_22
_twin_individual_twin_matrix_23
_twin_individual_twin_matrix_31
_twin_individual_twin_matrix_32
_twin_individual_twin_matrix_33
1 0.5(2) 1 0 0 0 1 0 0 0 1
2 0.5(2) -1 0 0 0 -1 0 0 0 -1

_cell_formula_units_Z            6

_cell_measurement_reflns_used    5136
_cell_measurement_theta_min      1.73
_cell_measurement_theta_max      24.10
_cell_measurement_temperature    293
_cell_special_details            
; ?
;

_exptl_crystal_density_diffrn    3.3799
_exptl_crystal_density_meas      ?
_exptl_crystal_density_method    ?
_exptl_crystal_F_000             1476

_exptl_absorpt_coefficient_mu    10.518
_exptl_crystal_description       'hexagonal plate'
_exptl_crystal_size_max          0.156
_exptl_crystal_size_mid          0.136
_exptl_crystal_size_min          0.113
_exptl_crystal_size_rad          ?
_exptl_crystal_colour            orange
_exptl_absorpt_process_details   X-SHAPE'
_exptl_absorpt_correction_type   integration
_exptl_absorpt_correction_T_min  0.1122
_exptl_absorpt_correction_T_max  0.1890
loop_
_exptl_crystal_face_index_h
_exptl_crystal_face_index_k
_exptl_crystal_face_index_l
_exptl_crystal_face_perp_dist
? ? ? ?

#=======================================================================

# 7. EXPERIMENTAL DATA

_exptl_special_details           ?

_diffrn_ambient_temperature      293
_diffrn_measurement_device       '2-circle goniometer'
_diffrn_measurement_device_type  'STOE IPDS 2'
_diffrn_detector                 'image plate (34 cm diameter)'
_diffrn_detector_type            STOE
_diffrn_detector_area_resol_mean 6.67
_diffrn_source                   
'sealed X-ray tube, 12 x 0.4 mm long-fine focus'
_diffrn_source_voltage           50
_diffrn_source_current           40
_diffrn_source_power             1.20
_diffrn_radiation_type           'Mo K\a'
_diffrn_radiation_wavelength     0.71073
_diffrn_radiation_monochromator  'plane graphite'
_diffrn_radiation_polarisn_norm  0
_diffrn_radiation_collimation    '0.5 mm diameter, monocapillary'
_diffrn_measurement_method       'rotation method'
_diffrn_measurement_details      
; 180 frames, detector distance = 100 mm
;


_diffrn_reflns_number            15713
_diffrn_reflns_theta_min         1.73
_diffrn_reflns_theta_max         25.23
_diffrn_reflns_theta_full        29.23
_diffrn_measured_fraction_theta_max 0.99
_diffrn_measured_fraction_theta_full 0.99
_diffrn_reflns_av_R_equivalents  0.0681
_diffrn_reflns_av_unetI/netI     0.0882
_diffrn_reflns_limit_h_min       -16
_diffrn_reflns_limit_h_max       17
_diffrn_reflns_limit_k_min       -12
_diffrn_reflns_limit_k_max       12
_diffrn_reflns_limit_l_min       -20
_diffrn_reflns_limit_l_max       20
_diffrn_reflns_reduction_process ?

_diffrn_standards_number         ?
_diffrn_standards_interval_count ?
_diffrn_standards_interval_time  ?
_diffrn_standards_decay_%        ?
loop_
_diffrn_standard_refln_index_h
_diffrn_standard_refln_index_k
_diffrn_standard_refln_index_l
? ? ?

_diffrn_radiation_probe          X-ray

#=======================================================================

# 8. REFINEMENT DATA

_refine_special_details          
; Carbon and Nitrogen atoms were refined isotropically due to the 
  heavily disordered nature of the cations. The C-C and the C-N
  bond distances and the C-N-C, N-C-N and C-C-N bond angles were 
  restrained to 1.42(1) Angstrom and 108.00(1) degrees, respectively. 
  The thermal parameters of the IM molecules were restrained so that 
  each cation has the same Uiso.
;

_reflns_number_total             5829
_reflns_number_gt                3328
_reflns_threshold_expression     I>2\s(I)

_refine_ls_structure_factor_coef Fsqd
_refine_ls_R_factor_gt           0.0569
_refine_ls_wR_factor_gt          0.0860
_refine_ls_R_factor_all          0.1098
_refine_ls_wR_factor_ref         0.0936
_refine_ls_goodness_of_fit_ref   1.24
_refine_ls_goodness_of_fit_gt    1.53
_refine_ls_restrained_S_gt       ?
_refine_ls_restrained_S_all      ?
_refine_ls_number_reflns         5829
_refine_ls_number_parameters     158
_refine_ls_number_restraints     36
_refine_ls_number_constraints    74
_refine_ls_weighting_scheme      sigma
_refine_ls_weighting_details     w=1/(\s^2^(I)+0.0004I^2^)
_refine_ls_hydrogen_treatment    constr
_refine_ls_shift/su_max          0.0491
_refine_ls_shift/su_mean         0.0067
_refine_diff_density_max         2.75
_refine_diff_density_min         -2.39
_refine_ls_extinction_method     none
_refine_ls_extinction_coef       ?
_refine_ls_abs_structure_details 
;  2787 of Friedel pairs used in the refinement
;
_refine_ls_abs_structure_Flack   0.5(2)
_refine_ls_abs_structure_Rogers  ?

loop_
_atom_type_symbol
_atom_type_scat_dispersion_real
_atom_type_scat_dispersion_imag
_atom_type_scat_source
C 0.0033 0.0016 'International Tables Vol C tables 4.2.6.8 and 6.1.1.1'
H 0.0000 0.0000 'International Tables Vol C tables 4.2.6.8 and 6.1.1.1'
I -0.4742 1.8119 'International Tables Vol C tables 4.2.6.8 and 6.1.1.1'
N 0.0061 0.0033 'International Tables Vol C tables 4.2.6.8 and 6.1.1.1'
Sn -0.6537 1.4246 'International Tables Vol C tables 4.2.6.8 and 6.1.1.1'

_computing_data_collection       ?
_computing_cell_refinement       ?
_computing_data_reduction        ?
_computing_structure_solution    ?
_computing_structure_refinement  ?
_computing_molecular_graphics    ?
_computing_publication_material  ?

loop_
_restr_distance_atom_site_label_1
_restr_distance_site_symmetry_1
_restr_distance_atom_site_label_2
_restr_distance_site_symmetry_2
_restr_distance_target
_restr_distance_target_weight_param
C1 . N2 . 1.42 0.001
C1 . C3 . 1.42 0.001
N2 . C2 . 1.42 0.001
N1 . C2 . 1.42 0.001
N1 . C3 . 1.42 0.001
C4 . N3 . 1.42 0.001
C4 . N4 . 1.42 0.001
N3 . C6 . 1.42 0.001
C6 . C5 . 1.42 0.001
C5 . N4 . 1.42 0.001
C8 . N5 . 1.42 0.001
C8 . N6 . 1.42 0.001
N6 . C7 . 1.42 0.001
C7 . C9 . 1.42 0.001
C9 . N5 . 1.42 0.001

loop_
_restr_angle_atom_site_label_1
_restr_angle_site_symmetry_1
_restr_angle_atom_site_label_2
_restr_angle_site_symmetry_2
_restr_angle_atom_site_label_3
_restr_angle_site_symmetry_3
_restr_angle_target
_restr_angle_target_weight_param
C7 . N6 . C8 . 108 0.01
N5 . C8 . N6 . 108 0.01
C8 . N5 . C9 . 108 0.01
N5 . C9 . C7 . 108 0.01
C9 . C7 . N6 . 108 0.01
C1 . N2 . C2 . 108 0.01
N1 . C2 . N2 . 108 0.01
C2 . N1 . C3 . 108 0.01
N1 . C3 . C1 . 108 0.01
C3 . C1 . N2 . 108 0.01
C4 . N4 . C5 . 108 0.01
N3 . C4 . N4 . 108 0.01
C4 . N3 . C6 . 108 0.01
N3 . C6 . C5 . 108 0.01
C6 . C5 . N4 . 108 0.01

loop_
_restr_torsion_atom_site_label_1
_restr_torsion_site_symmetry_1
_restr_torsion_atom_site_label_2
_restr_torsion_site_symmetry_2
_restr_torsion_atom_site_label_3
_restr_torsion_site_symmetry_3
_restr_torsion_atom_site_label_4
_restr_torsion_site_symmetry_4
_restr_torsion_angle_target
_restr_torsion_weight_param
N1 . C2 . N2 . C1 . 0 0.01
N1 . C3 . C1 . N2 . 0 0.01
N5 . C8 . N6 . C7 . 0 0.01
N5 . C9 . C7 . N6 . 0 0.01
N3 . C4 . N4 . C5 . 0 0.01
N3 . C6 . C5 . N4 . 0 0.01

loop_
_restr_equal_distance_atom_site_label_1
_restr_equal_distance_site_symmetry_1
_restr_equal_distance_atom_site_label_2
_restr_equal_distance_site_symmetry_2
_restr_equal_distance_class_class_id
_restr_equal_distance_class_target_weight_param
? ? ? ? ? ?

loop_
_restr_equal_angle_atom_site_label_1
_restr_equal_angle_site_symmetry_1
_restr_equal_angle_atom_site_label_2
_restr_equal_angle_site_symmetry_2
_restr_equal_angle_atom_site_label_3
_restr_equal_angle_site_symmetry_3
_restr_equal_angle_class_class_id
_restr_equal_angle_class_target_weight_param
? ? ? ? ? ? ? ?

loop_
_restr_equal_torsion_atom_site_label_1
_restr_equal_torsion_site_symmetry_1
_restr_equal_torsion_atom_site_label_2
_restr_equal_torsion_site_symmetry_2
_restr_equal_torsion_atom_site_label_3
_restr_equal_torsion_site_symmetry_3
_restr_equal_torsion_atom_site_label_4
_restr_equal_torsion_site_symmetry_4
_restr_equal_torsion_class_class_id
_restr_equal_torsion_class_target_weight_param
? ? ? ? ? ? ? ? ? ?


#=======================================================================

# 9. ATOMIC COORDINATES AND DISPLACEMENT PARAMETERS

loop_
_atom_site_label
_atom_site_type_symbol
_atom_site_fract_x
_atom_site_fract_y
_atom_site_fract_z
_atom_site_adp_type
_atom_site_U_iso_or_equiv
_atom_site_site_symmetry_multiplicity
_atom_site_occupancy
_atom_site_calc_flag
_atom_site_refinement_flags
_atom_site_disorder_assembly
_atom_site_disorder_group
Sn1 Sn 0.4187(3) 0.7567(4) 0.2614(3) Uani 0.0500(14) 2 1 d . . .
Sn2 Sn 0.7335(3) 0.7441(5) 0.0264(3) Uani 0.0524(14) 2 1 d . . .
Sn3 Sn 1.0791(5) 0.7508(6) 0.1449(4) Uani 0.0577(5) 2 1 d . . .
I1 I 0.5872(3) 0.4820(5) -0.0902(2) Uani 0.0700(17) 2 1 d . . .
I2 I 0.5771(6) 0.7507(7) 0.1446(4) Uani 0.0681(5) 2 1 d . . .
I3 I 0.9060(3) 0.5402(5) 0.1834(2) Uani 0.0742(16) 2 1 d . . .
I4 I 0.2486(4) 0.5115(5) 0.1354(3) Uani 0.0789(19) 2 1 d . . .
I5 I 0.2514(3) 0.7737(5) 0.3646(3) Uani 0.0823(18) 2 1 d . . .
I6 I 0.5713(4) 1.0186(5) 0.3807(3) Uani 0.081(2) 2 1 d . . .
I7 I 0.9045(3) 0.7256(4) -0.0786(2) Uani 0.0664(15) 2 1 d . . .
I8 I 0.2509(3) 0.9589(4) 0.1084(3) Uani 0.0711(15) 2 1 d . . .
I9 I 0.9051(4) 0.9920(4) 0.1512(3) Uani 0.0694(17) 2 1 d . . .
N1 N 0.1862(16) 0.6120(18) 0.8648(13) Uiso 0.090(4) 2 1 d . . .
C2 C 0.3044(14) 0.6431(18) 0.9041(15) Uiso 0.090(4) 2 1 d . . .
N2 N 0.3179(14) 0.7841(19) 0.8776(14) Uiso 0.090(4) 2 1 d . . .
C1 C 0.2080(19) 0.8401(16) 0.8218(14) Uiso 0.090(4) 2 1 d . . .
C3 C 0.1266(12) 0.734(2) 0.8139(15) Uiso 0.090(4) 2 1 d . . .
C4 C 0.4848(16) 0.744(3) 0.6498(18) Uiso 0.106(4) 2 1 d . . .
N3 N 0.582(3) 0.655(2) 0.6914(15) Uiso 0.106(4) 2 1 d . . .
C6 C 0.6735(15) 0.721(3) 0.6785(19) Uiso 0.106(4) 2 1 d . . .
C5 C 0.633(2) 0.851(3) 0.6289(19) Uiso 0.106(4) 2 1 d . . .
N4 N 0.517(2) 0.865(2) 0.6112(15) Uiso 0.106(4) 2 1 d . . .
N5 N 0.8119(15) 0.770(3) 0.4053(18) Uiso 0.124(6) 2 1 d . . .
C8 C 0.871(2) 0.852(2) 0.3622(16) Uiso 0.124(6) 2 1 d . . .
N6 N 0.9891(18) 0.819(3) 0.4105(18) Uiso 0.124(6) 2 1 d . . .
C7 C 1.0023(18) 0.718(3) 0.4834(17) Uiso 0.124(6) 2 1 d . . .
C9 C 0.893(2) 0.687(2) 0.4802(17) Uiso 0.124(6) 2 1 d . . .
H1n1 H 0.155626 0.532305 0.870815 Uiso 0.1078 2 1 d . . .
H1c2 H 0.364709 0.579869 0.94202 Uiso 0.1078 2 1 d . . .
H1n2 H 0.382188 0.828394 0.892917 Uiso 0.1078 2 1 d . . .
H1c1 H 0.191534 0.933437 0.794271 Uiso 0.1078 2 1 d . . .
H1c3 H 0.045436 0.742577 0.780121 Uiso 0.1078 2 1 d . . .
H1c4 H 0.410591 0.725742 0.648002 Uiso 0.127 2 1 d . . .
H1n3 H 0.584184 0.574071 0.719901 Uiso 0.127 2 1 d . . .
H1c6 H 0.749364 0.684134 0.699546 Uiso 0.127 2 1 d . . .
H1c5 H 0.677541 0.917621 0.610642 Uiso 0.127 2 1 d . . .
H1n4 H 0.472739 0.936068 0.581871 Uiso 0.127 2 1 d . . .
H1n5 H 0.738724 0.771017 0.388705 Uiso 0.1489 2 1 d . . .
H1c8 H 0.837944 0.917656 0.309561 Uiso 0.1489 2 1 d . . .
H1n6 H 1.043496 0.855561 0.397629 Uiso 0.1489 2 1 d . . .
H1c7 H 1.072823 0.676407 0.527178 Uiso 0.1489 2 1 d . . .
H1c9 H 0.876322 0.622038 0.521515 Uiso 0.1489 2 1 d . . .

loop_
_atom_site_aniso_label
_atom_site_aniso_type_symbol
_atom_site_aniso_U_11
_atom_site_aniso_U_22
_atom_site_aniso_U_33
_atom_site_aniso_U_12
_atom_site_aniso_U_13
_atom_site_aniso_U_23
Sn1 Sn 0.0381(17) 0.050(2) 0.064(2) 0.0065(16) 0.0231(17) -0.0026(16)
Sn2 Sn 0.0443(19) 0.059(2) 0.0503(19) -0.0013(18) 0.0154(17) -0.0007(16)
Sn3 Sn 0.0427(6) 0.0615(7) 0.0664(7) -0.0019(6) 0.0196(5) -0.0024(7)
I1 I 0.056(2) 0.082(3) 0.063(2) -0.010(2) 0.0152(19) -0.028(2)
I2 I 0.0658(7) 0.0739(8) 0.0727(8) 0.0041(8) 0.0367(6) -0.0035(8)
I3 I 0.075(2) 0.087(3) 0.0617(19) -0.008(2) 0.0298(18) 0.0195(19)
I4 I 0.077(3) 0.076(3) 0.089(3) -0.001(3) 0.039(2) -0.022(2)
I5 I 0.063(2) 0.106(3) 0.084(2) -0.001(2) 0.0364(18) 0.014(2)
I6 I 0.067(3) 0.070(3) 0.094(3) -0.002(2) 0.022(2) -0.009(2)
I7 I 0.093(3) 0.067(2) 0.0492(16) -0.006(2) 0.0395(17) -0.0229(16)
I8 I 0.0419(17) 0.056(2) 0.106(2) 0.0130(17) 0.0198(16) 0.0290(19)
I9 I 0.073(2) 0.047(2) 0.081(2) 0.003(2) 0.025(2) -0.0026(17)

loop_
_jana_atom_site_ADP_C_label
_jana_atom_site_ADP_C_type_symbol
_jana_atom_site_ADP_C_111
_jana_atom_site_ADP_C_112
_jana_atom_site_ADP_C_113
_jana_atom_site_ADP_C_122
_jana_atom_site_ADP_C_123
_jana_atom_site_ADP_C_133
_jana_atom_site_ADP_C_222
_jana_atom_site_ADP_C_223
_jana_atom_site_ADP_C_233
_jana_atom_site_ADP_C_333
? ? ? ? ? ? ? ? ? ? ? ?

loop_
_jana_atom_site_ADP_D_label
_jana_atom_site_ADP_D_type_symbol
_jana_atom_site_ADP_D_1111
_jana_atom_site_ADP_D_1112
_jana_atom_site_ADP_D_1113
_jana_atom_site_ADP_D_1122
_jana_atom_site_ADP_D_1123
_jana_atom_site_ADP_D_1133
_jana_atom_site_ADP_D_1222
_jana_atom_site_ADP_D_1223
_jana_atom_site_ADP_D_1233
_jana_atom_site_ADP_D_1333
_jana_atom_site_ADP_D_2222
_jana_atom_site_ADP_D_2223
_jana_atom_site_ADP_D_2233
_jana_atom_site_ADP_D_2333
_jana_atom_site_ADP_D_3333
? ? ? ? ? ? ? ? ? ? ? ? ? ? ? ? ?

loop_
_jana_atom_site_ADP_E_label
_jana_atom_site_ADP_E_type_symbol
_jana_atom_site_ADP_E_11111
_jana_atom_site_ADP_E_11112
_jana_atom_site_ADP_E_11113
_jana_atom_site_ADP_E_11122
_jana_atom_site_ADP_E_11123
_jana_atom_site_ADP_E_11133
_jana_atom_site_ADP_E_11222
_jana_atom_site_ADP_E_11223
_jana_atom_site_ADP_E_11233
_jana_atom_site_ADP_E_11333
_jana_atom_site_ADP_E_12222
_jana_atom_site_ADP_E_12223
_jana_atom_site_ADP_E_12233
_jana_atom_site_ADP_E_12333
_jana_atom_site_ADP_E_13333
_jana_atom_site_ADP_E_22222
_jana_atom_site_ADP_E_22223
_jana_atom_site_ADP_E_22233
_jana_atom_site_ADP_E_22333
_jana_atom_site_ADP_E_23333
_jana_atom_site_ADP_E_33333
? ? ? ? ? ? ? ? ? ? ? ? ? ? ? ? ? ? ? ? ? ? ?

loop_
_jana_atom_site_ADP_F_label
_jana_atom_site_ADP_F_type_symbol
_jana_atom_site_ADP_F_111111
_jana_atom_site_ADP_F_111112
_jana_atom_site_ADP_F_111113
_jana_atom_site_ADP_F_111122
_jana_atom_site_ADP_F_111123
_jana_atom_site_ADP_F_111133
_jana_atom_site_ADP_F_111222
_jana_atom_site_ADP_F_111223
_jana_atom_site_ADP_F_111233
_jana_atom_site_ADP_F_111333
_jana_atom_site_ADP_F_112222
_jana_atom_site_ADP_F_112223
_jana_atom_site_ADP_F_112233
_jana_atom_site_ADP_F_112333
_jana_atom_site_ADP_F_113333
_jana_atom_site_ADP_F_122222
_jana_atom_site_ADP_F_122223
_jana_atom_site_ADP_F_122233
_jana_atom_site_ADP_F_122333
_jana_atom_site_ADP_F_123333
_jana_atom_site_ADP_F_133333
_jana_atom_site_ADP_F_222222
_jana_atom_site_ADP_F_222223
_jana_atom_site_ADP_F_222233
_jana_atom_site_ADP_F_222333
_jana_atom_site_ADP_F_223333
_jana_atom_site_ADP_F_233333
_jana_atom_site_ADP_F_333333
? ? ? ? ? ? ? ? ? ? ? ? ? ? ? ? ? ? ? ? ? ? ? ? ? ? ? ? ? ?


#=======================================================================

# 10. MOLECULAR GEOMETRY


loop_
_geom_bond_atom_site_label_1
_geom_bond_atom_site_label_2
_geom_bond_site_symmetry_1
_geom_bond_site_symmetry_2
_geom_bond_distance
_geom_bond_publ_flag
Sn1 I1 . 2_565 3.289(5) ?
Sn1 I2 . . 3.201(10) ?
Sn1 I4 . . 3.218(6) ?
Sn1 I5 . . 3.139(7) ?
Sn1 I6 . . 3.212(6) ?
Sn1 I8 . . 3.093(5) ?
Sn2 I1 . . 3.170(6) ?
Sn2 I2 . . 3.195(9) ?
Sn2 I3 . . 3.154(5) ?
Sn2 I6 . 2_574 3.233(6) ?
Sn2 I7 . . 3.205(7) ?
Sn2 I9 . . 3.239(6) ?
Sn3 I3 . . 3.211(8) ?
Sn3 I4 . 1_655 3.183(8) ?
Sn3 I5 . 1_655 3.158(6) ?
Sn3 I7 . . 3.212(6) ?
Sn3 I8 . 1_655 3.170(8) ?
Sn3 I9 . . 3.222(8) ?
I1 N3 . 1_554 3.66(2) ?
I1 N5 . 2_564 3.77(3) ?
I2 N3 . 2_564 3.89(2) ?
I2 N4 . 2_574 3.69(2) ?
I2 N5 . . 3.87(2) ?
I3 N1 . 2_664 3.807(16) ?
I4 N1 . 1_554 3.95(2) ?
I5 N1 . 2_564 3.733(18) ?
I5 N4 . . 3.99(2) ?
I5 N6 . 1_455 3.74(3) ?
I6 N2 . 2_574 3.74(2) ?
I6 N4 . 2_574 4.00(2) ?
I6 N5 . . 3.78(2) ?
I8 N4 . 2_574 3.79(3) ?
I9 N6 . . 3.97(3) ?
N1 C2 . . 1.42(2) ?
N1 C3 . . 1.42(3) ?
C2 N2 . . 1.42(3) ?
N2 C1 . . 1.42(3) ?
C1 C3 . . 1.42(3) ?
C4 N3 . . 1.42(3) ?
C4 N4 . . 1.42(4) ?
N3 C6 . . 1.42(4) ?
C6 C5 . . 1.42(4) ?
C5 N4 . . 1.42(4) ?
N5 C8 . . 1.42(4) ?
N5 C9 . . 1.42(3) ?
C8 N6 . . 1.42(3) ?
N6 C7 . . 1.42(4) ?
C7 C9 . . 1.42(4) ?

loop_
_geom_angle_atom_site_label_1
_geom_angle_atom_site_label_2
_geom_angle_atom_site_label_3
_geom_angle_site_symmetry_1
_geom_angle_site_symmetry_2
_geom_angle_site_symmetry_3
_geom_angle
_geom_angle_publ_flag
I1 Sn1 I2 2_565 . . 88.48(17) ?
I1 Sn1 I4 2_565 . . 90.63(15) ?
I1 Sn1 I5 2_565 . . 95.21(16) ?
I1 Sn1 I6 2_565 . . 93.56(13) ?
I1 Sn1 I8 2_565 . . 174.76(17) ?
I2 Sn1 I4 . . . 95.35(19) ?
I2 Sn1 I5 . . . 176.23(17) ?
I2 Sn1 I6 . . . 86.68(18) ?
I2 Sn1 I8 . . . 90.30(17) ?
I4 Sn1 I5 . . . 83.82(16) ?
I4 Sn1 I6 . . . 175.39(18) ?
I4 Sn1 I8 . . . 84.41(13) ?
I5 Sn1 I6 . . . 93.89(17) ?
I5 Sn1 I8 . . . 85.96(15) ?
I6 Sn1 I8 . . . 91.45(15) ?
I1 Sn2 I2 . . . 87.69(18) ?
I1 Sn2 I3 . . . 91.06(15) ?
I1 Sn2 I6 . . 2_574 95.14(13) ?
I1 Sn2 I7 . . . 93.08(15) ?
I1 Sn2 I9 . . . 174.31(19) ?
I2 Sn2 I3 . . . 90.07(17) ?
I2 Sn2 I6 . . 2_574 89.36(18) ?
I2 Sn2 I7 . . . 175.73(17) ?
I2 Sn2 I9 . . . 95.48(18) ?
I3 Sn2 I6 . . 2_574 173.74(18) ?
I3 Sn2 I7 . . . 85.72(15) ?
I3 Sn2 I9 . . . 84.23(13) ?
I6 Sn2 I7 2_574 . . 94.75(16) ?
I6 Sn2 I9 2_574 . . 89.63(15) ?
I7 Sn2 I9 . . . 83.42(16) ?
I3 Sn3 I4 . . 1_655 96.3(2) ?
I3 Sn3 I5 . . 1_655 95.3(2) ?
I3 Sn3 I7 . . . 84.68(16) ?
I3 Sn3 I8 . . 1_655 179.6(2) ?
I3 Sn3 I9 . . . 83.6(2) ?
I4 Sn3 I5 1_655 . 1_655 84.10(17) ?
I4 Sn3 I7 1_655 . . 95.6(2) ?
I4 Sn3 I8 1_655 . 1_655 83.7(2) ?
I4 Sn3 I9 1_655 . . 179.1(2) ?
I5 Sn3 I7 1_655 . . 179.6(2) ?
I5 Sn3 I8 1_655 . 1_655 84.35(17) ?
I5 Sn3 I9 1_655 . . 96.8(2) ?
I7 Sn3 I8 . . 1_655 95.7(2) ?
I7 Sn3 I9 . . . 83.58(16) ?
I8 Sn3 I9 1_655 . . 96.38(19) ?
Sn1 I1 Sn2 2_564 . . 171.41(17) ?
Sn1 I1 N3 2_564 . 1_554 85.7(3) ?
Sn1 I1 N5 2_564 . 2_564 81.5(4) ?
Sn2 I1 N3 . . 1_554 86.7(3) ?
Sn2 I1 N5 . . 2_564 102.5(4) ?
N3 I1 N5 1_554 . 2_564 89.8(6) ?
Sn1 I2 Sn2 . . . 179.5(2) ?
Sn1 I2 N3 . . 2_564 83.2(5) ?
Sn1 I2 N4 . . 2_574 85.0(5) ?
Sn1 I2 N5 . . . 81.1(4) ?
Sn2 I2 N3 . . 2_564 96.7(5) ?
Sn2 I2 N4 . . 2_574 95.0(5) ?
Sn2 I2 N5 . . . 99.4(4) ?
N3 I2 N4 2_564 . 2_574 167.5(8) ?
N3 I2 N5 2_564 . . 85.1(5) ?
N4 I2 N5 2_574 . . 97.2(5) ?
Sn2 I3 Sn3 . . . 79.24(16) ?
Sn2 I3 N1 . . 2_664 160.0(3) ?
Sn3 I3 N1 . . 2_664 80.8(3) ?
Sn1 I4 Sn3 . . 1_455 77.08(16) ?
Sn1 I4 N1 . . 1_554 104.0(3) ?
Sn3 I4 N1 1_455 . 1_554 91.4(3) ?
Sn1 I5 Sn3 . . 1_455 78.61(17) ?
Sn1 I5 N1 . . 2_564 98.7(4) ?
Sn1 I5 N4 . . . 88.7(5) ?
Sn1 I5 N6 . . 1_455 162.5(4) ?
Sn3 I5 N1 1_455 . 2_564 82.7(3) ?
Sn3 I5 N4 1_455 . . 164.3(5) ?
Sn3 I5 N6 1_455 . 1_455 84.5(4) ?
N1 I5 N4 2_564 . . 108.5(4) ?
N1 I5 N6 2_564 . 1_455 83.8(5) ?
N4 I5 N6 . . 1_455 107.1(6) ?
Sn1 I6 Sn2 . . 2_575 172.30(19) ?
Sn1 I6 N2 . . 2_574 92.6(3) ?
Sn1 I6 N4 . . 2_574 80.0(3) ?
Sn1 I6 N5 . . . 82.4(4) ?
Sn2 I6 N2 2_575 . 2_574 88.9(3) ?
Sn2 I6 N4 2_575 . 2_574 107.5(4) ?
Sn2 I6 N5 2_575 . . 95.0(4) ?
N2 I6 N4 2_574 . 2_574 93.6(5) ?
N2 I6 N5 2_574 . . 170.3(6) ?
N4 I6 N5 2_574 . . 93.7(6) ?
Sn2 I7 Sn3 . . . 78.48(16) ?
Sn1 I8 Sn3 . . 1_455 79.10(15) ?
Sn1 I8 N4 . . 2_574 84.9(3) ?
Sn3 I8 N4 1_455 . 2_574 163.9(3) ?
Sn2 I9 Sn3 . . . 77.85(16) ?
Sn2 I9 N6 . . . 97.2(4) ?
Sn3 I9 N6 . . . 80.1(4) ?
I3 N1 I4 2_465 . 1_556 112.7(5) ?
I3 N1 I5 2_465 . 2_565 77.2(3) ?
I3 N1 C2 2_465 . . 156.5(15) ?
I3 N1 C3 2_465 . . 76.8(9) ?
I4 N1 I5 1_556 . 2_565 79.5(3) ?
I4 N1 C2 1_556 . . 83.5(12) ?
I4 N1 C3 1_556 . . 126.2(15) ?
I5 N1 C2 2_565 . . 89.9(10) ?
I5 N1 C3 2_565 . . 149.2(12) ?
C2 N1 C3 . . . 108.0(15) ?
N1 C2 N2 . . . 108.0(14) ?
I6 N2 C2 2_575 . . 132.0(12) ?
I6 N2 C1 2_575 . . 118.3(13) ?
C2 N2 C1 . . . 108.0(15) ?
N2 C1 C3 . . . 108.0(14) ?
N1 C3 C1 . . . 108.0(14) ?
N3 C4 N4 . . . 108(2) ?
I1 N3 I2 1_556 . 2_565 73.7(4) ?
I1 N3 C4 1_556 . . 111(2) ?
I1 N3 C6 1_556 . . 127.7(14) ?
I2 N3 C4 2_565 . . 123.9(15) ?
I2 N3 C6 2_565 . . 110.9(17) ?
C4 N3 C6 . . . 108(2) ?
N3 C6 C5 . . . 108(2) ?
C6 C5 N4 . . . 108(2) ?
I2 N4 I5 2_575 . . 113.1(5) ?
I2 N4 I6 2_575 . 2_575 69.7(4) ?
I2 N4 I8 2_575 . 2_575 73.2(5) ?
I2 N4 C4 2_575 . . 144.4(18) ?
I2 N4 C5 2_575 . . 85.5(14) ?
I5 N4 I6 . . 2_575 137.6(9) ?
I5 N4 I8 . . 2_575 70.1(4) ?
I5 N4 C4 . . . 85.9(12) ?
I5 N4 C5 . . . 126.2(16) ?
I6 N4 I8 2_575 . 2_575 70.8(5) ?
I6 N4 C4 2_575 . . 76.1(15) ?
I6 N4 C5 2_575 . . 95.9(14) ?
I8 N4 C4 2_575 . . 86.7(17) ?
I8 N4 C5 2_575 . . 157.7(15) ?
C4 N4 C5 . . . 108.0(19) ?
I1 N5 I2 2_565 . . 72.7(4) ?
I1 N5 I6 2_565 . . 77.8(4) ?
I1 N5 C8 2_565 . . 156.0(15) ?
I1 N5 C9 2_565 . . 87.4(16) ?
I2 N5 I6 . . . 70.3(3) ?
I2 N5 C8 . . . 84.3(13) ?
I2 N5 C9 . . . 143.1(17) ?
I6 N5 C8 . . . 101.2(15) ?
I6 N5 C9 . . . 136(2) ?
C8 N5 C9 . . . 108(2) ?
N5 C8 N6 . . . 108(2) ?
I5 N6 I9 1_655 . . 76.4(6) ?
I5 N6 C8 1_655 . . 141.6(18) ?
I5 N6 C7 1_655 . . 103.7(15) ?
I9 N6 C8 . . . 66.5(15) ?
I9 N6 C7 . . . 160.7(16) ?
C8 N6 C7 . . . 108(2) ?
N6 C7 C9 . . . 108.0(19) ?
N5 C9 C7 . . . 108(2) ?

loop_
_geom_torsion_atom_site_label_1
_geom_torsion_atom_site_label_2
_geom_torsion_atom_site_label_3
_geom_torsion_atom_site_label_4
_geom_torsion_site_symmetry_1
_geom_torsion_site_symmetry_2
_geom_torsion_site_symmetry_3
_geom_torsion_site_symmetry_4
_geom_torsion
_geom_torsion_publ_flag
? ? ? ? ? ? ? ? ? ?

loop_
_geom_hbond_atom_site_label_D
_geom_hbond_atom_site_label_H
_geom_hbond_atom_site_label_A
_geom_hbond_site_symmetry_D
_geom_hbond_site_symmetry_H
_geom_hbond_site_symmetry_A
_geom_hbond_distance_DH
_geom_hbond_distance_HA
_geom_hbond_distance_DA
_geom_hbond_angle_DHA
_geom_hbond_publ_flag
N1 H1n1 max10 . . 1_556 0.87 2.36 2.839(18) 115.05 ?
min1 H1n3 C4 2_565 . . 0.45 2.06 2.11(3) 90.42 ?
min8 H1n3 C4 2_565 . . 1.19 2.06 2.63(2) 104.88 ?
C5 H1c5 max5 . . 1_565 0.96 2.36 2.93(3) 117.62 ?
N5 H1n5 max1 . . . 0.87 2.37 3.053(19) 135.78 ?
min3 H1n5 max1 . . . 0.44 2.37 2.6188 120.63 ?
min7 H1n5 C8 . . . 0.99 2.06 2.41(3) 98.59 ?
min7 H1n5 max1 . . . 0.99 2.37 3.2541 148.41 ?
C8 H1c8 max9 . . 1_565 0.96 2.00 2.72(3) 129.77 ?
min6 H1c7 C9 2_665 . . 1.08 2.13 2.68(3) 108.94 ?


#=======================================================================

# 11. STRUCTURE-FACTOR LIST

loop_
_refln_index_h
_refln_index_k
_refln_index_l
_refln_F_squared_calc
_refln_F_squared_meas
_refln_F_squared_sigma
_refln_observed_status
1 0 0 625.10 748.00 696.54 <
-1 0 0 624.66 846.18 472.08 <
2 0 0 180.41 88.83 570.36 <
-2 0 0 182.17 88.83 383.36 <
3 0 0 300938.00 374348.00 6881.13 o
-3 0 0 300973.00 373123.00 6861.77 o
4 0 0 1423.19 1285.63 434.89 o
-4 0 0 1422.27 1491.33 416.01 o
5 0 0 8504.99 10373.90 523.76 o
-5 0 0 8503.89 10046.60 473.31 o
6 0 0 389430.00 437241.00 8304.73 o
7 0 0 10204.20 11285.50 288.48 o
8 0 0 519.52 196.35 266.58 <
9 0 0 22023.10 22327.90 350.18 o
10 0 0 560.51 462.83 280.55 <
11 0 0 4098.18 4062.60 299.33 o
12 0 0 27715.90 30275.40 348.54 o
13 0 0 2280.69 1879.36 285.93 o
14 0 0 62.38 359.98 322.51 <
1 1 0 800.28 724.63 444.16 <
-1 1 0 796.51 635.80 490.94 <
2 1 0 331.27 238.43 355.32 <
-2 1 0 330.62 364.65 406.72 <
3 1 0 556.59 645.15 308.50 o
-3 1 0 557.14 490.88 481.55 <
4 1 0 2800.08 2613.34 252.98 o
-4 1 0 2802.66 2449.71 430.66 o
5 1 0 435.27 229.08 219.80 <
-5 1 0 437.43 172.98 397.42 <
6 1 0 606.30 733.98 224.30 o
-6 1 0 608.13 257.13 416.16 <
7 1 0 3134.89 3249.14 205.23 o
-7 1 0 3139.95 3702.62 410.12 o
8 1 0 679.39 542.30 182.44 o
-8 1 0 681.17 233.75 383.47 <
9 1 0 525.43 799.43 214.81 o
10 1 0 1611.69 1832.61 195.82 o
11 1 0 371.80 182.33 196.41 <
12 1 0 148.62 322.58 205.64 <
13 1 0 647.29 883.58 200.77 o
14 1 0 171.65 458.15 210.24 o
0 2 0 7897.44 9471.60 506.90 o
1 2 0 76.29 42.08 453.48 <
-1 2 0 76.00 51.43 439.45 <
2 2 0 576.19 1070.58 373.68 o
-2 2 0 577.99 621.78 397.36 <
3 2 0 191428.00 173228.00 1693.07 o
-3 2 0 191470.00 188721.00 1214.38 o
4 2 0 897.94 832.15 299.25 o
-4 2 0 896.52 995.78 289.76 o
5 2 0 541.18 327.25 257.21 <
-5 2 0 542.18 504.90 397.39 <
6 2 0 58.75 -60.78 210.37 <
-6 2 0 56.97 397.38 355.23 <
7 2 0 687.16 598.40 215.12 o
-7 2 0 686.03 911.63 387.90 o
8 2 0 2827.43 2833.06 219.71 o
-8 2 0 2825.71 2945.26 387.79 o
9 2 0 29617.90 32108.10 267.88 o
-9 2 0 29610.60 31678.00 524.72 o
10 2 0 1073.17 1294.98 238.12 o
-10 2 0 1075.15 1294.98 331.71 o
11 2 0 161.64 677.88 224.09 o
12 2 0 244.80 495.55 205.57 o
13 2 0 172.51 448.80 196.22 o
1 3 0 10015.40 9078.90 435.52 o
-1 3 0 10016.30 9153.70 444.37 o
2 3 0 5890.28 5885.85 397.39 o
-2 3 0 5887.18 5521.20 389.44 o
3 3 0 535.58 336.60 317.97 <
-3 3 0 535.19 556.33 303.87 <
4 3 0 2128.53 2085.06 308.63 o
-4 3 0 2130.26 1977.53 276.13 o
5 3 0 9417.80 9284.60 342.25 o
-5 3 0 9417.38 9873.65 337.79 o
6 3 0 1423.66 1145.38 276.16 o
-6 3 0 1419.51 1276.28 388.16 o
7 3 0 491.14 537.63 196.32 o
-7 3 0 492.96 317.90 360.03 <
8 3 0 2016.37 1912.08 187.29 o
-8 3 0 2014.93 1762.48 393.02 o
9 3 0 463.85 766.70 210.12 o
-9 3 0 462.26 285.18 374.05 <
10 3 0 67.82 210.38 200.99 <
-10 3 0 67.58 322.58 350.58 <
11 3 0 1103.45 822.80 224.71 o
-11 3 0 1102.28 944.35 397.48 o
12 3 0 309.80 738.65 242.82 o
13 3 0 75.30 406.73 205.57 <
0 4 0 425346.00 411257.00 2265.43 o
1 4 0 1849.50 1715.73 346.13 o
-1 4 0 1845.49 1584.83 313.60 o
2 4 0 393.82 701.25 341.13 o
-2 4 0 395.27 420.75 341.27 <
3 4 0 47611.50 46624.00 551.19 o
-3 4 0 47594.60 45932.10 587.83 o
4 4 0 1454.33 1346.41 308.68 o
-4 4 0 1454.49 1538.08 271.03 o
5 4 0 1629.04 1673.66 289.78 o
-5 4 0 1628.25 1481.98 285.39 o
6 4 0 152246.00 137114.00 1282.83 o
-6 4 0 152208.00 145445.00 1021.94 o
7 4 0 6217.99 5834.43 291.95 o
-7 4 0 6224.84 5876.50 417.41 o
8 4 0 132.55 102.85 219.73 <
-8 4 0 132.54 289.85 383.33 <
9 4 0 5854.27 4693.72 240.38 o
-9 4 0 5852.60 5240.70 408.91 o
10 4 0 348.36 331.93 215.06 <
-10 4 0 347.96 210.38 378.70 <
11 4 0 1202.98 944.35 234.05 o
-11 4 0 1203.21 1173.43 406.75 o
12 4 0 11709.50 10560.90 283.24 o
-12 4 0 11712.00 10977.00 499.97 o
13 4 0 1311.69 1047.21 229.43 o
1 5 0 440.33 794.75 303.67 o
-1 5 0 441.97 935.01 340.98 o
2 5 0 916.74 677.88 285.35 o
-2 5 0 920.55 766.70 308.66 o
3 5 0 126.80 93.50 289.86 <
-3 5 0 126.55 112.20 280.50 <
4 5 0 80.42 0.00 299.20 <
-4 5 0 80.60 224.40 285.15 <
5 5 0 52.95 102.85 275.82 <
-5 5 0 53.42 -51.43 247.77 <
6 5 0 25.94 196.35 243.07 <
-6 5 0 25.88 102.85 252.45 <
7 5 0 289.14 116.88 280.53 <
-7 5 0 288.68 224.40 229.10 <
8 5 0 964.76 860.20 238.53 o
-8 5 0 961.98 1164.08 373.84 o
9 5 0 165.35 331.93 229.02 <
-9 5 0 165.94 261.80 369.31 <
10 5 0 88.65 434.78 224.27 <
-10 5 0 88.59 -79.48 402.05 <
11 5 0 209.58 336.60 233.71 <
-11 5 0 209.85 -74.80 416.08 <
12 5 0 4.37 355.30 243.01 <
-12 5 0 4.35 154.28 448.79 <
0 6 0 3750.36 3431.47 342.16 o
1 6 0 98.30 285.18 247.73 <
-1 6 0 98.40 411.40 303.79 <
2 6 0 108.33 285.18 280.46 <
-2 6 0 108.23 130.90 299.20 <
3 6 0 30194.30 31804.20 407.77 o
-3 6 0 30186.10 31215.10 424.62 o
4 6 0 361.10 397.38 271.14 <
-4 6 0 361.27 392.70 275.82 <
5 6 0 248.19 285.18 280.49 <
-5 6 0 247.30 359.98 271.12 <
6 6 0 2010.54 1762.48 299.61 o
-6 6 0 2008.06 1888.71 266.71 o
7 6 0 278.13 472.18 271.07 <
-7 6 0 278.17 238.43 219.74 <
8 6 0 532.34 710.60 238.30 o
-8 6 0 533.01 565.68 243.08 o
9 6 0 5339.12 4184.15 244.26 o
-9 6 0 5341.58 4693.72 422.76 o
10 6 0 380.32 257.13 215.10 <
-10 6 0 380.48 261.80 434.80 <
11 6 0 226.12 556.33 252.30 o
-11 6 0 225.79 313.23 458.14 <
1 7 0 14941.40 15652.00 370.88 o
-1 7 0 14942.00 14997.50 387.46 o
2 7 0 6959.95 7372.51 315.39 o
-2 7 0 6952.40 7311.74 348.66 o
3 7 0 470.08 439.45 266.49 <
-3 7 0 470.57 224.40 322.64 <
4 7 0 5764.05 5811.05 308.32 o
-4 7 0 5758.01 5633.40 337.16 o
5 7 0 7954.83 8097.14 340.38 o
-5 7 0 7956.69 8686.19 336.43 o
6 7 0 746.51 645.15 271.22 o
-6 7 0 747.10 729.30 252.46 o
7 7 0 3218.15 2973.31 295.20 o
-7 7 0 3215.61 2945.26 276.62 o
8 7 0 1240.89 1028.51 299.41 o
-8 7 0 1243.87 691.90 271.63 o
9 7 0 103.37 972.41 303.36 o
-9 7 0 103.31 233.75 411.39 <
10 7 0 662.65 715.28 233.71 o
-10 7 0 662.78 374.00 439.54 <
11 7 0 973.79 1215.51 284.92 o
-11 7 0 973.61 958.38 486.21 <
0 8 0 26213.00 25530.30 409.01 o
1 8 0 1298.70 1481.98 298.97 o
-1 8 0 1300.65 1215.51 336.69 o
2 8 0 1065.31 1154.73 308.46 o
-2 8 0 1064.27 612.43 308.85 <
3 8 0 63.83 -9.35 303.88 <
-3 8 0 64.71 102.85 303.87 <
4 8 0 803.31 944.35 294.41 o
-4 8 0 802.77 430.10 313.40 <
5 8 0 236.29 374.00 294.49 <
-5 8 0 236.93 378.68 294.48 <
6 8 0 10316.60 10037.30 348.13 o
-6 8 0 10316.00 10168.20 351.77 o
7 8 0 1284.53 1519.38 303.58 o
-7 8 0 1285.05 1374.46 275.71 o
8 8 0 583.65 944.35 317.65 o
-8 8 0 583.46 598.40 289.84 o
9 8 0 56.74 369.33 285.10 <
-9 8 0 56.69 705.93 439.26 <
1 9 0 278.53 518.93 317.81 <
-1 9 0 279.38 364.65 331.90 <
2 9 0 1549.28 1954.16 317.28 o
-2 9 0 1550.84 1823.26 336.23 o
3 9 0 44.57 275.83 313.19 <
-3 9 0 44.63 677.88 322.33 o
4 9 0 936.29 696.58 322.73 o
-4 9 0 937.86 612.43 332.11 <
5 9 0 96.98 -18.70 303.88 <
-5 9 0 97.14 374.00 303.81 <
6 9 0 10.30 462.83 294.40 <
-6 9 0 10.41 149.60 308.54 <
7 9 0 231.19 201.03 303.88 <
-7 9 0 231.46 378.68 303.83 <
8 9 0 573.38 799.43 345.83 o
-8 9 0 573.11 888.25 327.05 o
0 10 0 1587.44 1879.36 340.87 o
1 10 0 310.19 154.28 327.28 <
-1 10 0 309.87 598.40 350.52 <
2 10 0 176.05 546.98 313.09 <
-2 10 0 176.26 233.75 317.89 <
3 10 0 1344.53 1337.06 299.21 o
-3 10 0 1344.18 1023.83 332.22 o
4 10 0 78.40 140.25 317.89 <
-4 10 0 78.47 289.85 336.57 <
5 10 0 192.44 271.15 313.21 <
-5 10 0 192.15 565.68 299.05 <
6 10 0 878.45 1215.51 355.02 o
-6 10 0 878.27 958.38 364.60 o
1 11 0 1990.83 1809.23 360.23 o
-1 11 0 1990.38 1809.23 360.23 o
2 11 0 661.74 733.98 355.26 o
-2 11 0 661.63 986.43 355.09 o
3 11 0 48.18 416.08 317.81 <
-3 11 0 48.08 509.58 345.83 <
14 1 -1 125.16 551.65 224.19 o
13 1 -1 177.93 350.63 214.99 <
12 1 -1 12065.00 12501.00 217.90 o
11 1 -1 867.91 920.98 186.93 o
10 1 -1 48.71 299.20 172.89 <
9 1 -1 905.23 925.66 191.65 o
8 1 -1 2401.64 2753.59 232.69 o
7 1 -1 5827.51 6119.60 245.88 o
-6 1 1 98158.50 101041.00 899.98 o
6 1 -1 98164.00 113884.00 2145.28 o
-5 1 1 32063.50 29606.90 679.81 o
5 1 -1 32061.00 35291.80 314.57 o
-4 1 1 26.38 130.90 313.22 <
4 1 -1 26.28 42.08 299.20 <
-3 1 1 2357.28 3300.57 395.48 o
3 1 -1 2357.17 3394.07 432.83 o
-2 1 1 817.10 584.38 406.83 <
2 1 -1 833.02 546.98 416.20 <
-1 1 1 31682.60 34842.90 1067.61 o
1 1 -1 31681.10 34679.30 963.55 o
0 1 1 117293.00 127338.00 1215.27 o
0 1 -1 117290.00 129629.00 1122.87 o
1 1 1 34425.50 37199.20 656.93 o
-1 1 -1 34442.40 42720.40 1030.33 o
2 1 1 3475.49 4833.97 317.62 o
-2 1 -1 3477.82 4936.82 454.36 o
3 1 1 2366.70 3487.57 277.16 o
-3 1 -1 2367.12 3697.94 356.75 o
4 1 1 8389.12 8522.57 293.50 o
-4 1 -1 8389.88 9476.27 523.26 o
5 1 1 36203.20 37671.30 332.81 o
-5 1 -1 36201.30 42411.80 576.42 o
6 1 1 32939.80 36451.20 231.54 o
-6 1 -1 32937.70 41949.00 446.58 o
7 1 1 21250.80 23099.30 243.23 o
-7 1 -1 21251.90 27091.80 431.44 o
8 1 1 3602.17 3356.67 220.75 o
-8 1 -1 3606.91 4062.60 382.11 o
9 1 1 662.18 467.50 229.20 o
-9 1 -1 662.39 215.05 346.08 <
10 1 1 302.92 448.80 210.30 o
11 1 1 5083.56 4595.55 204.08 o
12 1 1 1327.01 1351.08 210.34 o
13 1 1 1037.85 1014.48 205.73 o
14 2 -1 69.12 317.90 219.65 <
13 2 -1 100.67 495.55 210.19 o
12 2 -1 141.30 261.80 205.67 <
11 2 -1 843.68 878.90 200.99 o
10 2 -1 103.10 79.48 224.40 <
-9 2 1 328.96 285.18 369.34 <
9 2 -1 327.89 434.78 238.38 <
-8 2 1 1703.04 1725.08 359.95 o
8 2 -1 1701.30 1692.36 215.07 o
-7 2 1 643.79 715.28 359.94 <
7 2 -1 646.81 514.25 191.78 o
-6 2 1 648.20 453.48 374.07 <
6 2 -1 646.60 509.58 243.18 o
-5 2 1 7269.81 7148.11 346.62 o
5 2 -1 7264.90 7012.53 342.67 o
-4 2 1 5.00 158.95 299.19 <
4 2 -1 4.99 -51.43 303.88 <
-3 2 1 370.55 158.95 350.66 <
3 2 -1 371.09 252.45 369.35 <
-2 2 1 10705.30 10808.70 555.79 o
2 2 -1 10708.40 11285.50 600.24 o
-1 2 1 53.73 172.98 467.49 <
1 2 -1 52.92 65.45 420.75 <
0 2 1 828.14 621.78 439.54 <
0 2 -1 828.18 612.43 434.87 <
1 2 1 11713.10 12781.50 507.32 o
-1 2 -1 11729.00 12295.30 496.56 o
2 2 1 50.15 196.35 327.23 <
-2 2 -1 50.53 210.38 355.28 <
3 2 1 54.51 233.75 280.47 <
-3 2 -1 54.00 -98.18 271.14 <
4 2 1 5646.19 5974.68 259.83 o
-4 2 -1 5637.92 5567.95 505.11 o
5 2 1 252.96 187.00 177.67 <
-5 2 -1 253.33 289.85 392.70 <
6 2 1 129.32 -23.38 201.03 <
-6 2 -1 130.46 46.75 383.36 <
7 2 1 1957.93 2136.49 209.90 o
-7 2 -1 1952.10 1898.06 397.45 o
8 2 1 46.65 215.05 196.32 <
-8 2 -1 46.69 247.78 359.95 <
9 2 1 117.16 364.65 200.93 <
-9 2 -1 117.56 -154.28 327.24 <
10 2 1 741.15 1126.68 233.31 o
-10 2 -1 739.95 453.48 402.16 <
11 2 1 34.82 556.33 219.48 o
12 2 1 67.90 467.50 205.53 o
13 2 1 95.06 532.95 205.48 o
13 3 -1 105.59 453.48 219.58 o
12 3 -1 3336.82 2949.94 221.17 o
11 3 -1 2669.66 2501.14 234.24 o
-10 3 1 296.17 275.83 355.31 <
10 3 -1 295.93 -74.80 224.42 <
-9 3 1 10218.70 9602.50 461.66 o
9 3 -1 10213.80 9836.25 261.00 o
-8 3 1 6893.19 7512.76 441.40 o
8 3 -1 6890.40 7124.74 222.43 o
-7 3 1 3172.65 3277.19 284.86 o
7 3 -1 3172.04 3510.94 274.71 o
-6 3 1 19970.00 20654.30 363.90 o
6 3 -1 19972.10 19588.30 393.19 o
-5 3 1 55608.10 54216.20 591.68 o
5 3 -1 55573.40 52748.30 624.82 o
-4 3 1 1005.50 920.98 336.67 o
4 3 -1 1006.46 892.93 317.99 o
-3 3 1 36067.30 36624.10 560.78 o
3 3 -1 36083.60 36175.30 578.18 o
-2 3 1 40586.10 34754.10 715.87 o
2 3 -1 40605.90 36128.60 636.05 o
-1 3 1 9350.74 9579.12 447.51 o
1 3 -1 9346.08 9163.05 370.54 o
0 3 1 22412.00 19705.20 529.13 o
0 3 -1 22393.60 20252.20 510.23 o
1 3 1 113344.00 105183.00 1096.15 o
-1 3 -1 113387.00 98946.90 1196.12 o
2 3 1 16670.30 15796.90 452.48 o
-2 3 -1 16668.70 15825.00 438.45 o
3 3 1 25174.90 27559.30 424.47 o
-3 3 -1 25177.40 26848.70 441.73 o
4 3 1 25690.30 27204.00 414.20 o
-4 3 -1 25704.10 27512.50 403.83 o
5 3 1 5071.80 5465.10 311.43 o
-5 3 -1 5082.60 9209.80 472.99 o
6 3 1 4895.21 4819.95 234.17 o
-6 3 -1 4900.67 5222.00 447.83 o
7 3 1 28941.40 28877.60 310.14 o
-7 3 -1 28945.20 31533.00 571.87 o
8 3 1 13430.80 13080.70 261.87 o
-8 3 -1 13426.70 12912.40 466.69 o
9 3 1 4582.28 4399.20 234.68 o
-9 3 -1 4580.35 4670.35 401.77 o
10 3 1 1969.54 1608.21 229.80 o
-10 3 -1 1965.80 1411.86 402.64 o
11 3 1 689.23 518.93 233.86 o
-11 3 -1 690.14 514.25 420.82 <
12 3 1 201.19 532.95 238.27 o
-12 3 -1 201.48 551.65 401.95 <
13 3 1 1713.42 1664.31 210.48 o
13 4 -1 47.29 416.08 233.63 <
12 4 -1 684.33 575.03 247.85 o
-11 4 1 127.83 88.83 369.33 <
11 4 -1 128.19 196.35 210.36 <
-10 4 1 438.52 126.23 383.40 <
10 4 -1 438.34 42.08 233.83 <
-9 4 1 3137.36 3127.59 383.37 o
9 4 -1 3140.56 2945.26 229.76 o
-8 4 1 923.20 864.88 355.34 o
8 4 -1 923.76 827.48 294.60 o
-7 4 1 84.47 -112.20 238.42 <
7 4 -1 84.43 341.28 261.73 <
-6 4 1 9820.00 9032.14 310.24 o
6 4 -1 9830.55 8433.74 323.64 o
-5 4 1 621.87 682.55 275.79 o
5 4 -1 621.76 794.75 271.03 o
-4 4 1 2387.67 2365.56 308.60 o
4 4 -1 2390.11 2201.94 327.60 o
-3 4 1 14499.40 14053.10 410.86 o
3 4 -1 14496.50 14609.40 410.33 o
-2 4 1 4625.75 4352.45 379.53 o
2 4 -1 4625.32 4801.25 335.94 o
-1 4 1 985.06 635.80 327.47 <
1 4 -1 980.59 635.80 308.77 o
0 4 1 24524.00 25937.00 466.05 o
0 4 -1 24542.30 24955.30 475.82 o
1 4 1 4581.51 5020.98 386.55 o
-1 4 -1 4574.81 4618.92 387.89 o
2 4 1 3711.53 4048.57 363.68 o
-2 4 -1 3707.10 3725.99 355.25 o
3 4 1 10185.20 9999.87 389.31 o
-3 4 -1 10182.60 10060.70 384.21 o
4 4 1 4009.09 4450.62 321.00 o
-4 4 -1 4011.82 4604.90 301.57 o
5 4 1 659.47 561.00 261.86 o
-5 4 -1 660.65 607.75 252.49 o
6 4 1 6796.31 6287.91 311.38 o
-6 4 -1 6793.16 6096.23 418.89 o
7 4 1 2565.57 2173.89 225.47 o
-7 4 -1 2571.02 2412.31 416.33 o
8 4 1 1280.43 1538.08 214.59 o
-8 4 -1 1280.76 991.10 378.90 o
9 4 1 820.19 967.73 205.52 o
-9 4 -1 820.52 949.03 345.86 o
10 4 1 655.00 411.40 205.86 <
-10 4 -1 655.92 495.55 346.02 <
11 4 1 169.46 308.55 196.30 <
-11 4 -1 169.46 60.78 411.41 <
12 4 1 434.55 453.48 219.72 o
-12 4 -1 434.90 364.65 402.07 <
-12 5 1 8321.99 7844.69 544.18 o
12 5 -1 8321.42 7451.99 286.83 o
-11 5 1 55.32 345.95 397.33 <
11 5 -1 55.52 154.28 224.39 <
-10 5 1 257.47 299.20 392.69 <
10 5 -1 257.94 682.55 214.77 o
-9 5 1 261.66 219.73 355.31 <
9 5 -1 264.07 406.73 289.80 <
-8 5 1 655.65 710.60 275.79 o
8 5 -1 657.68 977.08 284.92 o
-7 5 1 745.96 617.10 243.19 o
7 5 -1 744.44 504.90 280.64 <
-6 5 1 61595.20 61121.30 529.10 o
6 5 -1 61586.50 60424.70 567.20 o
-5 5 1 1178.23 1496.01 270.72 o
5 5 -1 1175.71 1580.16 289.31 o
-4 5 1 311.23 345.95 280.49 <
4 5 -1 312.41 416.08 280.46 <
-3 5 1 3547.28 3328.62 304.53 o
3 5 -1 3548.95 3548.34 313.23 o
-2 5 1 954.56 467.50 332.17 <
2 5 -1 951.07 518.93 294.79 <
-1 5 1 14385.10 13566.90 404.90 o
1 5 -1 14386.70 13623.00 367.74 o
0 5 1 96810.90 94131.60 775.67 o
0 5 -1 96804.80 91939.00 822.99 o
1 5 1 4815.00 5250.05 339.54 o
-1 5 -1 4810.08 5324.85 287.40 o
2 5 1 196.01 140.25 313.23 <
-2 5 -1 198.24 191.68 313.23 <
3 5 1 2286.26 2454.39 312.88 o
-3 5 -1 2286.24 2197.26 322.74 o
4 5 1 691.13 500.23 308.64 <
-4 5 -1 691.10 598.40 285.23 o
5 5 1 18830.80 18326.10 385.19 o
-5 5 -1 18838.90 19331.20 343.38 o
6 5 1 23878.10 22846.80 399.64 o
-6 5 -1 23878.70 24155.80 369.22 o
7 5 1 1712.72 1196.81 285.84 o
-7 5 -1 1712.46 1309.01 407.11 o
8 5 1 322.19 191.68 205.74 <
-8 5 -1 323.42 163.63 383.38 <
9 5 1 69.51 205.70 224.38 <
-9 5 -1 70.38 252.45 406.70 <
10 5 1 390.51 514.25 214.98 o
-10 5 -1 391.68 313.23 411.42 <
11 5 1 4261.22 3931.69 244.56 o
-11 5 -1 4261.07 4100.00 439.86 o
12 5 1 1365.77 1425.88 247.68 o
-12 5 -1 1365.55 1725.08 462.49 o
-12 6 1 224.99 374.00 444.10 <
12 6 -1 224.99 462.83 247.68 <
-11 6 1 1557.94 1935.46 448.40 o
11 6 -1 1557.73 1491.33 233.87 o
-10 6 1 14.79 163.63 406.72 <
10 6 -1 14.70 112.20 252.44 <
-9 6 1 238.10 411.40 266.42 <
9 6 -1 237.89 -201.03 280.48 <
-8 6 1 2376.11 2136.49 253.01 o
8 6 -1 2376.63 2421.66 303.78 o
-7 6 1 182.43 322.58 252.41 <
7 6 -1 181.12 130.90 271.16 <
-6 6 1 228.85 556.33 289.72 <
6 6 -1 228.43 537.63 313.11 <
-5 6 1 10347.50 9962.47 335.03 o
5 6 -1 10348.20 10663.70 366.91 o
-4 6 1 676.38 532.95 294.60 <
4 6 -1 677.30 532.95 261.89 o
-3 6 1 895.11 719.95 299.32 o
3 6 -1 896.96 822.80 266.54 o
-2 6 1 10543.20 10327.10 380.26 o
2 6 -1 10538.00 10444.00 328.05 o
-1 6 1 239.02 51.43 303.89 <
1 6 -1 238.59 247.78 257.12 <
0 6 1 270.64 0.00 327.27 <
0 6 -1 271.55 -70.13 313.24 <
1 6 1 13725.50 13300.40 336.49 o
-1 6 -1 13730.20 12804.90 382.56 o
2 6 1 1246.61 1318.36 280.41 o
-2 6 -1 1244.82 1037.86 322.77 o
3 6 1 545.86 448.80 299.24 <
-3 6 -1 546.35 874.23 284.94 o
4 6 1 8541.82 8326.22 342.69 o
-4 6 -1 8544.98 7760.54 346.16 o
5 6 1 45.41 56.10 289.85 <
-5 6 -1 45.66 266.48 275.79 <
6 6 1 349.00 481.53 289.80 <
-6 6 -1 347.45 448.80 271.11 <
7 6 1 3180.48 2627.36 291.28 o
-7 6 -1 3178.39 2421.66 422.03 o
8 6 1 199.85 322.58 205.66 <
-8 6 -1 200.37 514.25 420.67 <
9 6 1 171.17 70.13 224.41 <
-9 6 -1 171.23 -224.40 420.73 <
10 6 1 1301.33 1379.13 228.95 o
-10 6 -1 1301.12 1514.71 439.27 o
11 6 1 64.53 537.63 228.87 o
-11 6 -1 64.59 345.95 453.44 <
-11 7 1 942.04 691.90 462.94 <
11 7 -1 941.81 991.10 261.75 o
-10 7 1 176.10 -65.45 425.43 <
10 7 -1 175.89 154.28 313.23 <
-9 7 1 4943.91 5058.38 322.10 o
9 7 -1 4943.39 5245.38 340.06 o
-8 7 1 1667.00 1720.41 257.03 o
8 7 -1 1666.41 1547.43 276.01 o
-7 7 1 230.10 308.55 280.48 <
7 7 -1 230.06 509.58 299.10 <
-6 7 1 1436.57 991.10 280.98 o
6 7 -1 1437.93 939.68 257.70 o
-5 7 1 10567.50 10827.40 339.09 o
5 7 -1 10570.60 11187.30 307.41 o
-4 7 1 1642.10 1720.41 308.44 o
4 7 -1 1641.60 1813.91 280.21 o
-3 7 1 15018.30 13422.00 385.08 o
3 7 -1 15012.80 14081.20 365.23 o
-2 7 1 6049.93 6002.73 355.52 o
2 7 -1 6052.78 6680.61 328.65 o
-1 7 1 80.55 201.03 327.24 <
1 7 -1 80.77 224.40 308.53 <
0 7 1 977.65 1346.41 270.71 o
0 7 -1 979.10 1552.11 307.88 o
1 7 1 19692.40 21266.70 384.72 o
-1 7 -1 19682.70 19817.40 386.19 o
2 7 1 9485.32 9775.47 320.25 o
-2 7 -1 9486.39 9279.92 361.40 o
3 7 1 10455.30 9658.60 365.79 o
-3 7 -1 10457.20 9794.17 355.64 o
4 7 1 4282.60 4287.00 322.56 o
-4 7 -1 4278.85 4170.12 318.29 o
5 7 1 22.78 163.63 285.16 <
-5 7 -1 22.72 84.15 280.50 <
6 7 1 295.64 640.48 294.36 o
-6 7 -1 295.69 514.25 271.06 <
7 7 1 6348.68 5610.03 303.03 o
-7 7 -1 6351.32 6016.75 282.44 o
8 7 1 6496.25 6213.11 338.01 o
-8 7 -1 6495.36 6647.88 485.65 o
9 7 1 1595.90 1692.36 242.93 o
-9 7 -1 1595.76 1393.16 458.33 o
10 7 1 458.46 687.23 233.59 o
-10 7 -1 457.83 472.18 453.47 <
-10 8 1 53.03 420.75 509.52 <
10 8 -1 53.02 229.08 313.20 <
-9 8 1 945.38 1145.38 317.72 o
9 8 -1 945.21 1332.38 331.55 o
-8 8 1 322.48 322.58 275.83 <
8 8 -1 321.98 201.03 308.58 <
-7 8 1 153.64 121.55 275.83 <
7 8 -1 153.25 612.43 280.30 o
-6 8 1 2894.83 3099.54 308.02 o
6 8 -1 2892.99 2655.41 295.11 o
-5 8 1 63.20 247.78 299.17 <
5 8 -1 63.30 191.68 233.73 <
-4 8 1 168.29 -56.10 257.13 <
4 8 -1 169.04 168.30 289.85 <
-3 8 1 3709.99 3235.12 347.19 o
3 8 -1 3703.73 3468.87 323.27 o
-2 8 1 654.62 635.80 299.21 o
2 8 -1 656.20 621.78 252.47 o
-1 8 1 582.96 935.01 327.02 o
1 8 -1 582.71 439.45 303.94 <
0 8 1 6843.08 6844.23 355.30 o
0 8 -1 6847.56 7026.56 349.68 o
1 8 1 336.34 154.28 313.26 <
-1 8 -1 336.15 331.93 331.93 <
2 8 1 357.39 149.60 322.61 <
-2 8 -1 357.58 331.93 327.26 <
3 8 1 2457.44 2847.09 326.39 o
-3 8 -1 2459.92 2388.94 313.37 o
4 8 1 570.61 509.58 317.93 <
-4 8 -1 568.96 673.20 322.52 o
5 8 1 181.60 388.03 289.79 <
-5 8 -1 180.50 313.23 299.17 <
6 8 1 2625.08 3136.94 316.62 o
-6 8 -1 2624.87 2650.74 299.14 o
7 8 1 528.50 631.13 313.17 o
-7 8 -1 528.29 462.83 299.23 <
8 8 1 241.40 32.73 317.92 <
-8 8 -1 241.70 163.63 462.84 <
9 8 1 208.13 668.53 266.24 o
-9 8 -1 207.80 729.30 504.75 <
-8 9 1 198.72 617.10 317.73 <
8 9 -1 198.80 182.33 345.95 <
-7 9 1 47.41 -14.03 308.55 <
7 9 -1 47.29 172.98 317.89 <
-6 9 1 7015.02 7227.59 340.09 o
6 9 -1 7013.31 7208.89 335.49 o
-5 9 1 5.92 -158.95 261.78 <
5 9 -1 5.86 486.20 247.61 <
-4 9 1 385.92 626.45 313.11 <
4 9 -1 386.13 752.68 308.35 o
-3 9 1 186.55 467.50 313.14 <
3 9 -1 188.43 -60.78 257.13 <
-2 9 1 860.49 1215.51 331.61 o
2 9 -1 860.60 925.66 317.85 o
-1 9 1 920.81 738.65 299.33 o
1 9 -1 920.75 645.15 276.02 o
0 9 1 9639.11 9158.37 367.91 o
0 9 -1 9640.36 9448.22 370.64 o
1 9 1 93.90 261.80 313.20 <
-1 9 -1 93.60 299.20 313.19 <
2 9 1 142.99 -84.15 313.23 <
-2 9 -1 143.17 504.90 322.46 <
3 9 1 69.13 -56.10 317.90 <
-3 9 -1 69.53 425.43 322.49 <
4 9 1 590.22 303.88 327.35 <
-4 9 -1 590.97 593.73 308.55 <
5 9 1 2083.56 2117.79 336.55 o
-5 9 -1 2083.42 2066.36 331.95 o
6 9 1 2889.50 3183.69 312.45 o
-6 9 -1 2889.51 2632.04 327.82 o
7 9 1 239.40 383.35 317.86 <
-7 9 -1 238.95 294.53 285.16 <
8 9 1 39.05 275.83 341.24 <
-8 9 -1 39.08 448.80 574.97 <
-6 10 1 17.30 874.23 354.92 o
6 10 -1 17.27 458.15 317.79 <
-5 10 1 937.07 1215.51 350.39 o
5 10 -1 936.80 1360.43 322.15 o
-4 10 1 985.73 1220.18 341.07 o
4 10 -1 986.03 1154.73 303.71 o
-3 10 1 68.48 191.68 313.21 <
3 10 -1 68.86 378.68 322.51 <
-2 10 1 567.16 897.60 359.78 o
2 10 -1 566.73 864.88 336.42 o
-1 10 1 233.15 345.95 355.28 <
1 10 -1 233.24 626.45 299.03 o
0 10 1 112.85 584.38 303.70 <
0 10 -1 112.62 0.00 317.90 <
1 10 1 849.46 1159.41 322.31 o
-1 10 -1 849.47 458.15 355.48 <
2 10 1 1214.32 1884.03 331.03 o
-2 10 -1 1214.81 1140.71 327.32 o
3 10 1 109.13 74.80 313.23 <
-3 10 -1 109.12 523.60 317.77 <
4 10 1 429.80 649.83 322.47 o
-4 10 -1 430.35 804.10 327.05 o
5 10 1 146.29 345.95 317.86 <
-5 10 -1 146.57 229.08 308.54 <
6 10 1 115.04 495.55 355.20 <
-6 10 -1 114.84 168.30 327.24 <
-3 11 1 1108.98 818.13 364.85 o
3 11 -1 1108.47 1449.26 326.88 o
-2 11 1 53.46 481.53 322.46 <
2 11 -1 53.49 397.38 322.50 <
-1 11 1 36.44 514.25 355.17 <
1 11 -1 36.18 -4.68 327.25 <
0 11 1 185.69 785.40 345.68 o
0 11 -1 185.90 229.08 331.92 <
1 11 1 667.56 1131.36 354.96 o
-1 11 -1 667.52 1014.48 345.71 o
2 11 1 1102.45 1262.26 341.13 o
-2 11 -1 1102.92 1575.48 331.39 o
14 0 -2 1941.45 1622.23 299.69 o
13 0 -2 1227.93 1276.28 280.44 o
12 0 -2 5712.73 4899.42 289.08 o
11 0 -2 1217.32 1309.01 275.71 o
10 0 -2 1437.41 1112.66 262.20 o
9 0 -2 2686.50 2725.54 271.05 o
8 0 -2 27100.60 29957.50 359.06 o
7 0 -2 33151.10 36282.90 377.58 o
6 0 -2 32998.00 33940.70 458.78 o
5 0 -2 13817.20 12683.30 407.19 o
-4 0 2 5642.16 6456.21 582.08 o
4 0 -2 5645.27 6418.81 525.87 o
-3 0 2 5268.65 6194.41 708.56 o
3 0 -2 5265.71 5871.83 596.87 o
-2 0 2 39490.50 35936.90 1244.11 o
2 0 -2 39536.60 36885.90 1283.23 o
-1 0 2 98105.10 89849.30 2144.91 o
1 0 -2 98088.80 93977.30 2088.97 o
0 0 2 25064.70 25960.40 984.90 o
0 0 -2 25040.40 25600.40 940.33 o
1 0 2 1310.10 1206.16 556.39 o
-1 0 -2 1296.52 1402.51 551.58 o
2 0 2 11443.20 12290.60 607.98 o
-2 0 -2 11437.50 12931.10 604.29 o
3 0 2 594.90 523.60 336.63 <
-3 0 -2 594.74 313.23 434.85 <
4 0 2 37459.30 37203.80 649.08 o
-4 0 -2 37465.60 36446.50 646.77 o
5 0 2 77008.30 76375.90 806.26 o
-5 0 -2 77032.30 71766.30 851.37 o
6 0 2 7799.01 7713.79 383.81 o
-6 0 -2 7792.79 7849.36 397.08 o
7 0 2 5245.49 5712.88 362.75 o
-7 0 -2 5242.41 5806.38 362.33 o
8 0 2 2477.15 1986.88 421.42 o
-8 0 -2 2471.37 1949.48 286.21 o
9 0 2 1304.57 1425.88 430.00 o
10 0 2 1491.02 991.10 276.39 o
11 0 2 9006.99 9088.25 289.17 o
12 0 2 340.66 238.43 313.25 <
13 0 2 360.46 224.40 299.23 <
14 1 -2 73.02 219.73 200.99 <
13 1 -2 117.01 238.43 205.67 <
12 1 -2 802.28 855.53 200.97 o
11 1 -2 112.59 238.43 191.64 <
10 1 -2 513.75 341.28 187.10 <
9 1 -2 1954.50 1837.28 191.98 o
8 1 -2 373.50 210.38 191.74 <
7 1 -2 647.36 663.85 191.66 o
6 1 -2 1721.46 1884.03 228.73 o
-5 1 2 1937.70 2150.51 467.25 o
5 1 -2 1937.33 1776.51 257.43 o
-4 1 2 813.37 963.05 462.75 o
4 1 -2 814.62 790.08 350.64 o
-3 1 2 1595.42 1701.71 537.54 o
3 1 -2 1594.97 1771.83 383.14 o
-2 1 2 3364.19 3786.77 667.91 o
2 1 -2 3367.52 3754.04 616.50 o
-1 1 2 166.02 215.05 500.22 <
1 1 -2 166.87 70.13 715.28 <
0 1 2 253.03 191.68 448.81 <
0 1 -2 251.94 327.25 444.11 <
1 1 2 6362.62 7162.14 412.53 o
-1 1 -2 6363.39 7526.79 396.51 o
2 1 2 795.22 1019.16 313.05 o
-2 1 -2 797.68 1033.18 350.46 o
3 1 2 95.08 271.15 275.79 <
-3 1 -2 95.52 88.83 317.90 <
4 1 2 6876.48 6596.46 333.43 o
-4 1 -2 6869.10 6867.61 322.58 o
5 1 2 2297.61 2281.41 247.82 o
-5 1 -2 2293.50 2187.91 290.07 o
6 1 2 519.99 705.93 261.68 o
-6 1 -2 518.86 448.80 360.00 <
7 1 2 3608.56 3884.94 199.63 o
-7 1 -2 3605.28 3730.67 383.03 o
8 1 2 2068.14 1977.53 215.28 o
-8 1 -2 2065.84 2028.96 416.12 o
9 1 2 405.49 247.78 210.44 <
-9 1 -2 404.95 261.80 345.99 <
10 1 2 636.20 738.65 228.99 o
11 1 2 1060.97 1037.86 201.06 o
12 1 2 282.09 649.83 210.13 o
13 1 2 130.38 416.08 214.94 <
14 2 -2 3201.65 2561.91 235.77 o
13 2 -2 193.86 135.58 215.06 <
12 2 -2 1785.45 1841.96 205.57 o
11 2 -2 34686.70 35142.20 279.73 o
10 2 -2 12459.60 12772.20 229.19 o
9 2 -2 15135.10 15465.00 237.48 o
8 2 -2 63927.70 67030.50 289.67 o
-7 2 2 485.82 771.38 266.28 o
7 2 -2 492.72 135.58 257.22 <
-6 2 2 464.19 374.00 266.51 <
6 2 -2 468.31 537.63 238.39 o
-5 2 2 275437.00 300824.00 5815.59 o
5 2 -2 275462.00 287117.00 5727.75 o
-4 2 2 152988.00 166697.00 3328.05 o
4 2 -2 153012.00 161246.00 707.59 o
-3 2 2 83426.30 89344.40 851.55 o
3 2 -2 83427.50 87558.50 962.51 o
-2 2 2 326239.00 364582.00 7102.05 o
2 2 -2 326234.00 360168.00 7054.62 o
-1 2 2 22781.50 27124.50 662.47 o
1 2 -2 22752.60 26974.90 593.83 o
0 2 2 16085.10 17811.80 556.26 o
0 2 -2 16089.40 17367.70 541.08 o
1 2 2 424860.00 448428.00 8818.24 o
-1 2 -2 424875.00 453566.00 8846.73 o
2 2 2 301871.00 316354.00 6222.72 o
-2 2 -2 301824.00 336078.00 6561.15 o
3 2 2 50432.60 54090.00 326.76 o
-3 2 -2 50403.60 62112.40 652.30 o
4 2 2 99603.10 107320.00 2113.05 o
-4 2 -2 99562.10 125178.00 2402.28 o
5 2 2 9100.23 8779.69 232.37 o
-5 2 -2 9099.58 10542.20 449.62 o
6 2 2 7540.09 7358.49 207.44 o
-6 2 -2 7539.10 8630.09 438.68 o
7 2 2 44209.50 44562.30 333.65 o
-7 2 -2 44213.40 50064.80 515.82 o
8 2 2 65941.40 65225.90 410.34 o
-8 2 -2 65935.90 78507.70 247.42 o
9 2 2 3938.88 3553.02 235.37 o
-9 2 -2 3941.19 5109.80 421.95 o
10 2 2 8026.43 7905.46 248.81 o
-10 2 -2 8029.58 9060.20 343.73 o
11 2 2 311.64 224.40 233.78 <
-11 2 -2 311.51 -229.08 392.68 <
12 2 2 926.48 804.10 247.89 o
13 2 2 1009.62 1182.78 219.49 o
14 3 -2 88.87 659.18 247.49 o
13 3 -2 99.18 215.05 233.73 <
12 3 -2 809.25 705.93 201.13 o
11 3 -2 110.27 -98.18 177.64 <
10 3 -2 202.68 14.03 210.39 <
-9 3 2 1105.52 1047.21 406.77 o
9 3 -2 1101.19 1252.91 238.22 o
-8 3 2 56.76 -9.35 224.40 <
8 3 -2 56.19 14.03 219.73 <
-7 3 2 77.08 121.55 252.45 <
7 3 -2 76.96 280.50 275.79 <
-6 3 2 3435.23 3772.74 251.14 o
6 3 -2 3430.00 3983.12 330.23 o
-5 3 2 276.48 238.43 257.14 <
5 3 -2 277.46 331.93 294.51 <
-4 3 2 1738.20 2150.51 359.36 o
4 3 -2 1737.97 1893.38 387.83 o
-3 3 2 1638.41 1776.51 397.22 o
3 3 -2 1638.82 1252.91 407.08 o
-2 3 2 3086.55 2842.41 453.90 o
2 3 -2 3086.45 2982.66 378.90 o
-1 3 2 2060.53 1884.03 392.93 o
1 3 -2 2056.86 1678.33 393.17 o
0 3 2 2633.70 2328.16 369.86 o
0 3 -2 2627.57 2000.91 388.98 o
1 3 2 3458.93 3323.94 397.68 o
-1 3 -2 3457.01 3150.97 300.09 o
2 3 2 7109.25 6984.48 397.96 o
-2 3 -2 7103.32 7110.71 355.26 o
3 3 2 154.10 430.10 317.82 <
-3 3 -2 153.63 -201.03 481.51 <
4 3 2 2592.63 2739.56 219.25 o
-4 3 -2 2594.23 2580.61 420.77 o
5 3 2 4184.73 4011.17 206.62 o
-5 3 -2 4192.53 4263.62 411.21 o
6 3 2 183.38 233.75 191.66 <
-6 3 -2 184.36 294.53 359.96 <
7 3 2 346.27 635.80 186.78 o
-7 3 -2 348.13 378.68 345.94 <
8 3 2 2409.26 2360.89 201.18 o
-8 3 -2 2412.71 2585.29 350.30 o
9 3 2 518.48 79.48 210.50 <
-9 3 -2 518.76 453.48 364.67 <
10 3 2 370.18 299.20 210.40 <
-10 3 -2 370.80 514.25 383.30 <
11 3 2 900.69 1023.83 205.54 o
-11 3 -2 901.26 874.23 425.44 o
12 3 2 213.92 593.73 228.87 o
-12 3 -2 214.01 313.23 359.96 <
13 4 -2 718.07 944.35 224.17 o
12 4 -2 2744.36 2646.06 210.71 o
-11 4 2 256.75 65.45 388.04 <
11 4 -2 258.65 107.53 219.76 <
-10 4 2 948.44 1033.18 406.67 o
10 4 -2 949.12 1154.73 247.54 o
-9 4 2 2192.02 2159.86 257.20 o
9 4 -2 2192.59 2234.66 289.77 o
-8 4 2 7904.47 7713.79 291.21 o
8 4 -2 7899.71 8611.39 308.11 o
-7 4 2 15327.70 15600.60 347.39 o
7 4 -2 15317.60 14170.00 367.62 o
-6 4 2 13759.40 15142.40 349.49 o
6 4 -2 13753.80 13295.80 396.86 o
-5 4 2 1671.41 1977.53 279.95 o
5 4 -2 1666.51 1832.61 341.05 o
-4 4 2 2001.24 2304.79 350.12 o
4 4 -2 2001.85 2085.06 355.17 o
-3 4 2 1882.53 1711.06 374.22 o
3 4 -2 1880.21 2047.66 303.58 o
-2 4 2 24594.10 24104.40 543.49 o
2 4 -2 24594.80 23908.10 422.01 o
-1 4 2 65556.90 61462.50 747.98 o
1 4 -2 65585.90 62757.50 661.50 o
0 4 2 13330.10 13225.60 444.96 o
0 4 -2 13330.60 13090.10 432.06 o
1 4 2 2493.18 2164.54 267.22 o
-1 4 -2 2490.01 2211.29 351.11 o
2 4 2 4099.30 3912.99 318.52 o
-2 4 -2 4096.04 3987.79 341.62 o
3 4 2 44.54 130.90 219.71 <
-3 4 -2 44.65 37.40 294.53 <
4 4 2 10693.30 11804.40 345.64 o
-4 4 -2 10700.90 11164.00 299.37 o
5 4 2 34113.40 33019.70 338.64 o
-5 4 -2 34108.00 33192.70 708.22 o
6 4 2 1826.47 1827.93 215.05 o
-6 4 -2 1829.77 2024.29 434.54 o
7 4 2 542.25 495.55 201.06 o
-7 4 -2 541.92 238.43 350.70 <
8 4 2 2176.82 2258.04 205.47 o
-8 4 -2 2175.93 2169.21 411.41 o
9 4 2 168.88 215.05 219.71 <
-9 4 -2 169.20 299.20 364.63 <
10 4 2 253.47 -65.45 210.39 <
-10 4 -2 253.23 46.75 355.32 <
11 4 2 5030.11 5011.62 252.55 o
-11 4 -2 5030.57 5100.45 457.95 o
12 4 2 80.05 439.45 238.30 <
-12 4 -2 79.88 458.15 420.67 <
13 5 -2 342.29 542.30 224.29 o
-12 5 2 33.89 439.45 467.43 <
12 5 -2 33.88 247.78 243.06 <
-11 5 2 20.18 -9.35 416.08 <
11 5 -2 20.07 243.10 229.03 <
-10 5 2 3054.30 3006.04 378.78 o
10 5 -2 3054.04 2725.54 332.67 o
-9 5 2 5.49 88.83 261.80 <
9 5 -2 5.37 -28.05 308.55 <
-8 5 2 929.82 818.13 280.59 o
8 5 -2 927.84 743.33 285.32 o
-7 5 2 4712.05 5507.18 267.02 o
7 5 -2 4707.02 5137.85 334.89 o
-6 5 2 1298.57 1266.93 247.82 o
6 5 -2 1300.95 1290.31 317.91 o
-5 5 2 3680.69 3356.67 318.84 o
5 5 -2 3679.22 3557.69 276.25 o
-4 5 2 17419.10 17493.90 387.13 o
4 5 -2 17420.00 18559.80 383.22 o
-3 5 2 463.56 280.50 308.61 <
3 5 -2 462.63 383.35 257.16 <
-2 5 2 9135.94 8625.42 423.59 o
2 5 -2 9136.39 8573.99 340.48 o
-1 5 2 12583.30 12725.40 396.17 o
1 5 -2 12587.20 12398.20 366.37 o
0 5 2 3530.38 3557.69 299.11 o
0 5 -2 3515.83 3473.54 327.37 o
1 5 2 15325.40 15296.70 393.00 o
-1 5 -2 15324.20 14520.60 350.44 o
2 5 2 10877.40 11907.30 341.45 o
-2 5 -2 10868.90 12145.70 358.36 o
3 5 2 508.99 589.05 303.84 <
-3 5 -2 509.18 617.10 294.47 o
4 5 2 7351.90 7363.16 327.18 o
-4 5 -2 7354.96 7470.69 321.86 o
5 5 2 2279.36 2150.51 304.12 o
-5 5 -2 2281.76 2449.71 467.27 o
6 5 2 1506.31 1299.66 187.40 o
-6 5 -2 1509.15 1126.68 416.38 o
7 5 2 5386.53 5025.65 221.97 o
-7 5 -2 5384.78 6245.83 412.78 o
8 5 2 418.05 121.55 210.46 <
-8 5 -2 418.76 645.15 387.94 <
9 5 2 188.60 551.65 219.54 o
-9 5 -2 189.13 23.38 406.74 <
10 5 2 688.10 780.73 224.32 o
-10 5 -2 687.96 528.28 383.42 <
11 5 2 82.39 308.55 238.37 <
-11 5 -2 82.35 271.15 411.38 <
-12 6 2 1333.53 1538.08 457.98 o
12 6 -2 1333.47 1089.28 276.10 o
-11 6 2 4928.42 5077.08 499.83 o
11 6 -2 4927.71 4025.20 274.96 o
-10 6 2 4109.81 4436.60 288.55 o
10 6 -2 4111.49 4436.60 316.72 o
-9 6 2 1981.63 1683.01 257.68 o
9 6 -2 1982.12 1692.36 313.67 o
-8 6 2 5461.59 5460.43 299.21 o
8 6 -2 5467.85 5628.73 335.89 o
-7 6 2 166.27 -102.85 266.47 <
7 6 -2 164.46 458.15 294.43 <
-6 6 2 2211.62 2627.36 298.28 o
6 6 -2 2211.61 2449.71 303.38 o
-5 6 2 30888.10 28433.50 468.28 o
5 6 -2 30891.40 29424.60 465.32 o
-4 6 2 35590.20 33019.70 527.55 o
4 6 -2 35585.80 33099.20 475.38 o
-3 6 2 6466.63 6526.33 336.29 o
3 6 -2 6462.49 6213.11 300.60 o
-2 6 2 17996.70 17199.40 415.76 o
2 6 -2 17988.20 16479.50 360.74 o
-1 6 2 1422.31 1159.41 318.18 o
1 6 -2 1417.66 1075.26 280.89 o
0 6 2 316.30 514.25 299.12 <
0 6 -2 316.02 229.08 308.57 <
1 6 2 35440.60 34917.80 468.71 o
-1 6 -2 35447.40 33183.30 505.16 o
2 6 2 57690.90 57283.10 553.70 o
-2 6 -2 57707.20 54389.20 614.23 o
3 6 2 2838.46 3043.44 326.75 o
-3 6 -2 2838.27 2622.69 295.05 o
4 6 2 7494.83 6811.51 303.46 o
-4 6 -2 7497.23 6778.78 303.66 o
5 6 2 731.08 930.33 285.02 o
-5 6 -2 728.97 701.25 243.12 o
6 6 2 8.94 -135.58 275.81 <
-6 6 -2 8.87 275.83 406.69 <
7 6 2 5136.44 4665.67 231.70 o
-7 6 -2 5136.14 4894.75 426.18 o
8 6 2 16486.60 15455.60 269.11 o
-8 6 -2 16489.70 16343.90 534.15 o
9 6 2 128.08 149.60 219.72 <
-9 6 -2 128.03 439.45 383.28 <
10 6 2 647.34 836.83 233.58 o
-10 6 -2 647.18 883.58 411.28 o
11 6 2 40.57 575.03 247.55 o
-11 6 -2 39.81 556.33 453.36 <
-11 7 2 119.39 453.48 490.82 <
11 7 -2 119.42 472.18 327.15 <
-10 7 2 55.76 238.43 271.12 <
10 7 -2 55.78 317.90 327.20 <
-9 7 2 50.00 224.40 289.83 <
9 7 -2 49.86 271.15 299.16 <
-8 7 2 108.64 112.20 266.48 <
8 7 -2 108.78 140.25 275.82 <
-7 7 2 1016.28 771.38 257.34 o
7 7 -2 1017.57 925.66 289.93 o
-6 7 2 347.70 542.30 289.77 <
6 7 -2 348.15 149.60 247.82 <
-5 7 2 436.45 402.05 294.54 <
5 7 -2 435.59 420.75 280.51 <
-4 7 2 52.58 -233.75 299.17 <
4 7 -2 52.13 -23.38 257.13 <
-3 7 2 191.73 444.13 271.06 <
3 7 -2 191.37 224.40 261.79 <
-2 7 2 751.28 864.88 331.85 o
2 7 -2 751.42 808.78 271.11 o
-1 7 2 942.32 705.93 332.08 o
1 7 -2 940.38 710.60 308.71 o
0 7 2 196.59 322.58 317.87 <
0 7 -2 195.52 495.55 299.10 <
1 7 2 298.07 289.85 317.90 <
-1 7 -2 299.72 28.05 313.25 <
2 7 2 336.21 219.73 317.93 <
-2 7 -2 337.36 392.70 303.86 <
3 7 2 566.03 729.30 299.10 o
-3 7 -2 566.39 724.63 266.37 o
4 7 2 1129.21 1650.28 312.57 o
-4 7 -2 1129.27 1238.88 289.73 o
5 7 2 335.48 271.15 308.57 <
-5 7 -2 335.40 266.48 275.85 <
6 7 2 1.37 388.03 299.11 <
-6 7 -2 1.44 65.45 238.42 <
7 7 2 147.64 668.53 214.73 o
-7 7 -2 147.83 158.95 448.80 <
8 7 2 146.42 364.65 210.29 <
-8 7 -2 146.20 444.13 444.07 <
9 7 2 193.34 490.88 242.97 o
-9 7 -2 193.02 570.35 420.65 <
10 7 2 371.00 668.53 242.91 o
-10 7 -2 370.57 495.55 458.12 <
-10 8 2 307.89 336.60 303.87 <
10 8 -2 307.22 565.68 308.44 <
-9 8 2 524.93 738.65 238.27 o
9 8 -2 524.89 696.58 275.72 o
-8 8 2 320.26 275.83 261.81 <
8 8 -2 319.40 322.58 317.90 <
-7 8 2 2428.33 1991.56 290.71 o
7 8 -2 2430.20 2393.61 317.98 o
-6 8 2 1908.00 1767.16 285.42 o
6 8 -2 1907.98 2000.91 242.90 o
-5 8 2 543.10 107.53 280.61 <
5 8 -2 543.41 402.05 252.52 <
-4 8 2 1131.90 986.43 313.36 o
4 8 -2 1129.57 1243.56 280.37 o
-3 8 2 436.63 462.83 299.19 <
3 8 -2 435.99 603.08 285.09 o
-2 8 2 572.82 635.80 341.25 <
2 8 -2 573.65 467.50 303.92 <
-1 8 2 6802.05 6750.73 360.23 o
1 8 -2 6801.18 6404.78 338.65 o
0 8 2 1759.14 1636.26 318.07 o
0 8 -2 1759.10 1645.61 322.73 o
1 8 2 465.55 289.85 313.28 <
-1 8 -2 466.41 701.25 294.39 o
2 8 2 1889.94 2047.66 336.35 o
-2 8 -2 1888.64 1790.53 327.40 o
3 8 2 132.56 -23.38 313.23 <
-3 8 -2 132.26 149.60 322.58 <
4 8 2 200.30 486.20 275.72 <
-4 8 -2 199.68 504.90 308.45 <
5 8 2 4869.05 4366.47 333.75 o
-5 8 -2 4870.82 4329.07 310.66 o
6 8 2 254.36 289.85 317.89 <
-6 8 -2 254.48 261.80 294.52 <
7 8 2 77.28 285.18 280.46 <
-7 8 -2 77.30 603.08 472.05 <
8 8 2 768.46 827.48 243.05 o
-8 8 -2 767.08 1196.81 425.14 o
9 8 2 15.37 490.88 256.96 <
-9 8 -2 15.35 126.23 476.85 <
-9 9 2 121.77 518.93 308.42 <
9 9 -2 121.61 219.73 336.59 <
-8 9 2 383.22 486.20 341.24 <
8 9 -2 383.16 598.40 308.45 <
-7 9 2 1592.19 1542.76 317.97 o
7 9 -2 1591.76 1818.58 345.65 o
-6 9 2 1228.56 1178.11 336.65 o
6 9 -2 1229.27 1093.96 308.68 o
-5 9 2 991.08 1337.06 336.27 o
5 9 -2 992.43 902.28 294.60 o
-4 9 2 6076.81 5292.13 316.92 o
4 9 -2 6079.87 5871.83 295.64 o
-3 9 2 338.24 383.35 313.21 <
3 9 -2 338.86 598.40 308.44 <
-2 9 2 1942.66 2253.36 345.44 o
2 9 -2 1942.70 1832.61 294.71 o
-1 9 2 4358.79 4936.82 362.64 o
1 9 -2 4361.29 3959.74 309.97 o
0 9 2 1445.07 1467.96 313.20 o
0 9 -2 1445.13 1486.66 313.17 o
1 9 2 3547.53 3856.89 335.68 o
-1 9 -2 3545.38 3581.07 280.38 o
2 9 2 5289.24 5371.60 322.21 o
-2 9 -2 5284.59 4960.20 323.93 o
3 9 2 113.30 163.63 322.57 <
-3 9 -2 113.98 -51.43 308.55 <
4 9 2 1499.87 1430.56 294.62 o
-4 9 -2 1499.59 1500.68 336.60 o
5 9 2 1926.29 2650.74 321.13 o
-5 9 -2 1925.56 2108.44 317.59 o
6 9 2 293.97 294.53 317.90 <
-6 9 -2 293.95 472.18 285.11 <
7 9 2 1639.29 1612.88 341.31 o
-7 9 -2 1639.29 1542.76 462.92 o
-7 10 2 162.46 345.95 331.89 <
7 10 -2 161.52 187.00 299.20 <
-6 10 2 679.02 1383.81 321.91 o
6 10 -2 678.57 911.63 336.45 o
-5 10 2 669.94 584.38 345.99 <
5 10 -2 669.40 846.18 294.40 o
-4 10 2 2956.44 3038.77 359.79 o
4 10 -2 2957.73 3071.49 308.25 o
-3 10 2 109.57 402.05 336.53 <
3 10 -2 109.91 500.23 313.10 <
-2 10 2 155.27 177.65 345.95 <
2 10 -2 155.48 425.43 299.12 <
-1 10 2 223.83 -14.03 350.64 <
1 10 -2 222.58 14.03 327.27 <
0 10 2 631.35 846.18 331.79 o
0 10 -2 630.82 874.23 341.13 o
1 10 2 745.91 935.01 350.50 o
-1 10 -2 745.52 1084.61 345.70 o
2 10 2 4111.88 4665.67 358.13 o
-2 10 -2 4113.75 3674.57 319.31 o
3 10 2 31.14 514.25 308.40 <
-3 10 -2 31.25 261.80 294.49 <
4 10 2 121.89 472.18 317.80 <
-4 10 -2 122.25 149.60 280.50 <
5 10 2 174.94 551.65 313.09 <
-5 10 -2 173.89 266.48 294.51 <
-3 11 2 188.82 439.45 411.34 <
3 11 -2 188.85 570.35 327.11 <
-2 11 2 248.13 930.33 364.30 o
2 11 -2 248.05 411.40 322.53 <
-1 11 2 614.27 682.55 359.94 <
1 11 -2 614.01 1005.13 312.93 o
0 11 2 43.02 551.65 350.48 <
0 11 -2 42.93 743.33 345.68 o
1 11 2 96.20 617.10 359.81 <
-1 11 -2 96.23 444.13 364.57 <
2 11 2 190.29 906.95 364.30 o
-2 11 -2 190.62 771.38 369.08 o
14 1 -3 134.45 317.90 210.32 <
13 1 -3 276.47 715.28 200.70 o
12 1 -3 443.40 822.80 200.68 o
11 1 -3 1197.44 920.98 192.07 o
10 1 -3 32316.30 33482.50 251.85 o
9 1 -3 1154.81 995.78 187.24 o
8 1 -3 689.37 654.50 191.71 o
-7 1 3 221.87 233.75 411.40 <
7 1 -3 223.81 416.08 233.67 <
-6 1 3 821.25 738.65 425.47 <
6 1 -3 821.91 1182.78 228.63 o
-5 1 3 77.44 243.10 411.38 <
5 1 -3 78.21 210.38 275.80 <
-4 1 3 213276.00 188432.00 2236.31 o
4 1 -3 213280.00 191120.00 2036.25 o
-3 1 3 576.80 705.93 556.29 <
3 1 -3 575.52 701.25 528.24 <
-2 1 3 1235.93 1164.08 649.86 <
2 1 -3 1230.37 1070.58 505.00 o
-1 1 3 6758.73 7073.31 522.48 o
1 1 -3 6768.34 7134.09 550.41 o
0 1 3 1176.39 1355.76 350.45 o
0 1 -3 1178.57 1425.88 350.37 o
1 1 3 6305.69 6152.33 356.02 o
-1 1 -3 6301.29 6301.93 402.05 o
2 1 3 186977.00 177370.00 1331.69 o
-2 1 -3 186997.00 176692.00 1346.28 o
3 1 3 7087.94 6984.48 327.84 o
-3 1 -3 7087.53 6526.33 293.30 o
4 1 3 105.57 355.30 280.44 <
-4 1 -3 106.18 -56.10 271.15 <
5 1 3 153.77 388.03 252.38 <
-5 1 -3 154.19 163.63 247.77 <
6 1 3 349.57 224.40 238.46 <
-6 1 -3 350.68 196.35 196.40 <
7 1 3 3977.85 3440.82 263.77 o
-7 1 -3 3976.73 3015.39 362.35 o
8 1 3 27097.10 26498.00 295.32 o
-8 1 -3 27097.30 26928.10 516.61 o
9 1 3 3837.38 3263.17 240.63 o
-9 1 -3 3842.99 3216.42 417.45 o
10 1 3 340.80 532.95 224.29 o
-10 1 -3 341.02 313.23 402.06 <
11 1 3 283.24 748.00 233.44 o
12 1 3 2.95 327.25 200.93 <
14 2 -3 121.89 378.68 224.31 <
13 2 -3 197.12 392.70 210.29 <
12 2 -3 96.86 135.58 186.99 <
11 2 -3 566.63 738.65 196.19 o
10 2 -3 318.46 402.05 191.63 o
9 2 -3 742.95 701.25 177.70 o
-8 2 3 1469.12 1776.51 429.78 o
8 2 -3 1475.19 1168.76 224.86 o
-7 2 3 1876.68 1944.81 425.35 o
7 2 -3 1875.95 1771.83 229.29 o
-6 2 3 770.14 341.28 425.56 <
6 2 -3 766.11 570.35 299.31 <
-5 2 3 4351.83 3987.79 375.07 o
5 2 -3 4357.72 3842.87 333.58 o
-4 2 3 6243.39 6423.48 462.17 o
4 2 -3 6242.60 6502.96 550.84 o
-3 2 3 5226.38 4941.50 533.67 o
3 2 -3 5228.78 5376.28 504.49 o
-2 2 3 4881.93 5193.95 536.84 o
2 2 -3 4878.67 5324.85 606.74 o
-1 2 3 17771.20 15511.70 479.07 o
1 2 -3 17769.50 15334.10 771.08 o
0 2 3 3134.43 3230.44 317.64 o
0 2 -3 3142.49 3080.84 607.84 o
1 2 3 7696.23 7423.94 328.92 o
-1 2 -3 7699.43 6526.33 629.90 o
2 2 3 10245.00 10528.20 301.27 o
-2 2 -3 10243.50 10023.20 454.78 o
3 2 3 1814.70 2024.29 247.34 o
-3 2 -3 1817.11 2103.76 340.83 o
4 2 3 546.76 691.90 219.61 o
-4 2 -3 546.80 500.23 406.74 <
5 2 3 2973.41 2519.84 211.91 o
-5 2 -3 2979.63 2669.44 355.95 o
6 2 3 407.15 430.10 191.66 o
-6 2 -3 406.23 434.78 364.64 <
7 2 3 305.57 299.20 187.00 <
-7 2 -3 305.75 322.58 388.02 <
8 2 3 1340.49 1266.93 196.48 o
-8 2 -3 1342.85 892.93 294.95 o
9 2 3 218.37 383.35 186.92 o
-9 2 -3 217.99 425.43 275.76 <
10 2 3 41.39 205.70 219.70 <
-10 2 -3 41.17 504.90 383.24 <
11 2 3 239.17 280.50 224.39 <
-11 2 -3 239.38 593.73 439.35 <
12 2 3 58.18 439.45 242.97 <
14 3 -3 331.20 430.10 238.38 <
13 3 -3 1029.59 1369.78 228.58 o
12 3 -3 141.12 378.68 200.93 <
11 3 -3 6725.71 7437.96 223.03 o
10 3 -3 15185.30 15955.90 234.40 o
-9 3 3 3559.30 4202.85 339.27 o
9 3 -3 3561.15 3716.64 284.64 o
-8 3 3 4927.99 5581.98 281.88 o
8 3 -3 4932.28 4988.25 317.67 o
-7 3 3 2092.56 1888.71 276.21 o
7 3 -3 2099.79 1963.51 294.77 o
-6 3 3 1867.35 2225.31 293.84 o
6 3 -3 1870.15 2019.61 322.33 o
-5 3 3 18148.30 19349.90 449.52 o
5 3 -3 18143.40 18770.20 484.52 o
-4 3 3 109869.00 115674.00 817.05 o
4 3 -3 109830.00 113687.00 898.59 o
-3 3 3 7837.52 8143.89 531.72 o
3 3 -3 7836.39 8326.22 418.21 o
-2 3 3 13104.00 12963.80 524.53 o
2 3 -3 13095.40 13604.30 463.59 o
-1 3 3 4752.71 5212.65 339.45 o
1 3 -3 4760.98 5399.65 404.55 o
0 3 3 11484.70 12342.10 414.15 o
0 3 -3 11462.80 12239.20 357.79 o
1 3 3 4148.97 3291.22 371.54 o
-1 3 -3 4144.67 3824.17 542.92 o
2 3 3 101124.00 108007.00 2143.10 o
-2 3 -3 101137.00 115973.00 411.98 o
3 3 3 3967.19 4198.17 256.14 o
-3 3 -3 3970.70 3936.37 472.25 o
4 3 3 7671.85 7447.31 249.59 o
-4 3 -3 7665.51 8031.69 465.85 o
5 3 3 1743.58 1084.61 197.51 o
-5 3 -3 1746.08 1238.88 425.88 o
6 3 3 7018.95 7157.46 204.42 o
-6 3 -3 7026.36 8840.47 401.60 o
7 3 3 115.46 9.35 215.06 <
-7 3 -3 115.41 434.78 401.98 <
8 3 3 13863.80 14389.70 249.25 o
-8 3 -3 13860.10 18316.70 468.68 o
9 3 3 115.37 233.75 215.02 <
-9 3 -3 114.48 140.25 350.62 <
10 3 3 1179.04 953.71 215.34 o
-10 3 -3 1179.45 1280.96 406.64 o
11 3 3 590.34 434.78 233.84 <
-11 3 -3 591.91 1566.13 452.77 o
12 3 3 855.17 1276.28 261.31 o
-12 3 -3 855.41 1393.16 410.98 o
14 4 -3 26.85 378.68 247.68 <
13 4 -3 476.13 486.20 229.07 o
12 4 -3 95.94 215.05 215.02 <
11 4 -3 97.86 0.00 201.03 <
-10 4 3 3212.63 3337.97 481.30 o
10 4 -3 3211.69 2786.31 337.59 o
-9 4 3 422.52 172.98 294.58 <
9 4 -3 422.37 416.08 336.60 <
-8 4 3 44.28 243.10 243.06 <
8 4 -3 43.82 4.68 280.50 <
-7 4 3 6000.23 5712.88 296.03 o
7 4 -3 5997.99 5862.48 341.90 o
-6 4 3 20.36 93.50 261.80 <
6 4 -3 20.71 -88.83 313.22 <
-5 4 3 193.07 140.25 285.18 <
5 4 -3 193.14 9.35 294.54 <
-4 4 3 12237.90 11823.10 442.45 o
4 4 -3 12234.00 11710.90 396.90 o
-3 4 3 2668.28 2702.16 401.99 o
3 4 -3 2668.02 2552.56 262.11 o
-2 4 3 134.37 -18.70 383.36 <
2 4 -3 134.32 102.85 271.15 <
-1 4 3 11242.70 11145.30 398.11 o
1 4 -3 11253.70 11145.30 332.90 o
0 4 3 830.93 603.08 294.67 o
0 4 -3 830.04 663.85 332.02 <
1 4 3 1569.92 1126.68 341.72 o
-1 4 -3 1575.92 1486.66 327.36 o
2 4 3 7822.46 7381.86 343.86 o
-2 4 -3 7831.91 6858.26 259.73 o
3 4 3 1711.84 1425.88 280.92 o
-3 4 -3 1711.87 1594.18 318.06 o
4 4 3 24.86 42.08 215.05 <
-4 4 -3 24.94 -364.65 392.64 <
5 4 3 4963.75 4586.20 240.41 o
-5 4 -3 4958.82 4782.55 467.99 o
6 4 3 210.10 336.60 205.65 <
-6 4 -3 209.96 822.80 392.44 o
7 4 3 708.59 584.38 201.13 o
-7 4 -3 707.25 981.76 359.80 o
8 4 3 1144.67 1159.41 201.00 o
-8 4 -3 1142.07 1210.83 430.05 o
9 4 3 69.50 -56.10 205.70 <
-9 4 -3 69.49 182.33 402.04 <
10 4 3 130.49 322.58 210.31 <
-10 4 -3 130.76 88.83 430.11 <
11 4 3 496.91 584.38 224.34 o
-11 4 -3 496.68 397.38 416.10 <
13 5 -3 147.69 621.78 238.18 o
12 5 -3 744.24 1065.91 209.99 o
-11 5 3 250.15 51.43 430.12 <
11 5 -3 250.80 266.48 322.57 <
-10 5 3 13333.30 11552.00 362.24 o
10 5 -3 13331.60 11589.40 388.83 o
-9 5 3 126.11 88.83 243.10 <
9 5 -3 126.47 168.30 322.57 <
-8 5 3 4160.95 4731.12 306.31 o
8 5 -3 4159.58 4661.00 334.81 o
-7 5 3 184.66 4.68 233.76 <
7 5 -3 182.03 130.90 327.26 <
-6 5 3 5342.14 5451.08 312.72 o
6 5 -3 5342.47 5212.65 313.81 o
-5 5 3 2932.10 2926.56 303.89 o
5 5 -3 2937.50 2790.99 285.57 o
-4 5 3 75631.20 72734.00 761.42 o
4 5 -3 75637.90 75885.00 613.69 o
-3 5 3 10454.40 10229.00 412.90 o
3 5 -3 10455.40 9999.87 354.13 o
-2 5 3 6097.03 5899.88 332.87 o
2 5 -3 6100.27 5273.43 303.26 o
-1 5 3 33.26 -168.30 317.88 <
1 5 -3 32.93 205.70 289.83 <
0 5 3 14809.50 14539.30 390.73 o
0 5 -3 14814.20 14670.20 347.58 o
1 5 3 6864.70 7101.36 321.20 o
-1 5 -3 6865.75 6965.78 331.37 o
2 5 3 67019.80 69456.80 496.83 o
-2 5 -3 67016.40 67381.10 515.75 o
3 5 3 20540.60 20560.80 387.74 o
-3 5 -3 20535.80 20892.70 368.68 o
4 5 3 337.40 280.50 266.49 <
-4 5 -3 338.68 504.90 430.06 <
5 5 3 290.40 210.38 219.75 <
-5 5 -3 287.39 603.08 420.65 <
6 5 3 5693.57 5483.80 239.73 o
-6 5 -3 5685.94 5862.48 457.56 o
7 5 3 2198.84 2211.29 219.69 o
-7 5 -3 2199.55 1898.06 453.83 o
8 5 3 9560.47 8489.84 248.79 o
-8 5 -3 9561.39 8873.19 503.56 o
9 5 3 5955.64 5787.68 248.83 o
-9 5 -3 5955.15 6147.66 480.88 o
10 5 3 99.52 177.65 238.41 <
-10 5 -3 99.40 187.00 420.74 <
11 5 3 332.95 687.23 224.16 o
-11 5 -3 331.71 855.53 425.20 o
-12 6 3 71.03 687.23 434.60 <
12 6 -3 70.87 472.18 261.66 <
-11 6 3 1005.89 1122.01 271.03 o
11 6 -3 1006.08 1323.03 369.05 o
-10 6 3 481.47 289.85 271.22 <
10 6 -3 481.83 598.40 327.20 <
-9 6 3 1173.74 991.10 266.67 o
9 6 -3 1176.06 1107.98 327.31 o
-8 6 3 2607.85 2688.14 280.30 o
8 6 -3 2606.24 2468.41 332.20 o
-7 6 3 2752.40 2711.51 299.30 o
7 6 -3 2752.65 2655.41 346.15 o
-6 6 3 339.56 229.08 285.20 <
6 6 -3 340.02 205.70 294.56 <
-5 6 3 7319.51 7690.41 348.49 o
5 6 -3 7314.14 7068.64 314.72 o
-4 6 3 4030.77 3922.34 332.27 o
4 6 -3 4032.32 3870.92 295.10 o
-3 6 3 3313.03 3207.07 308.85 o
3 6 -3 3309.75 2959.29 276.87 o
-2 6 3 4314.42 4894.75 306.18 o
2 6 -3 4318.32 4403.87 284.83 o
-1 6 3 6875.90 7236.94 353.37 o
1 6 -3 6875.02 7321.09 305.77 o
0 6 3 856.72 565.68 304.05 <
0 6 -3 854.18 766.70 285.24 o
1 6 3 7988.92 8050.39 350.25 o
-1 6 -3 8003.44 7395.89 298.68 o
2 6 3 6833.94 8017.67 334.15 o
-2 6 -3 6829.19 7344.46 333.66 o
3 6 3 2114.14 2019.61 322.74 o
-3 6 -3 2115.85 1935.46 308.86 o
4 6 3 998.86 963.05 261.84 o
-4 6 -3 997.45 878.90 280.61 o
5 6 3 3301.27 3043.44 202.09 o
-5 6 -3 3300.93 3777.42 424.35 o
6 6 3 489.84 289.85 233.83 <
-6 6 -3 490.65 266.48 453.52 <
7 6 3 1191.37 1383.81 219.42 o
-7 6 -3 1189.91 1547.43 406.39 o
8 6 3 2134.83 1720.41 234.63 o
-8 6 -3 2136.28 1556.78 454.07 o
9 6 3 276.71 187.00 201.05 <
-9 6 -3 276.89 350.63 416.06 <
10 6 3 49.51 715.28 228.69 o
-10 6 -3 49.36 187.00 425.42 <
-11 7 3 2616.76 2720.86 322.35 o
11 7 -3 2615.91 2660.09 350.54 o
-10 7 3 2576.46 1963.51 300.38 o
10 7 -3 2574.49 2117.79 323.43 o
-9 7 3 756.90 944.35 285.02 o
9 7 -3 756.00 705.93 327.28 o
-8 7 3 2765.66 2501.14 309.14 o
8 7 -3 2766.28 2440.36 309.27 o
-7 7 3 2174.03 1739.11 267.30 o
7 7 -3 2176.85 1912.08 290.34 o
-6 7 3 801.51 780.73 313.24 o
6 7 -3 800.82 818.13 299.19 o
-5 7 3 7965.66 8129.87 382.43 o
5 7 -3 7961.14 7854.04 346.60 o
-4 7 3 13187.90 13534.20 413.09 o
4 7 -3 13189.60 13557.60 351.57 o
-3 7 3 3170.75 2767.61 328.20 o
3 7 -3 3171.63 2725.54 277.06 o
-2 7 3 6266.69 6689.96 343.81 o
2 7 -3 6268.46 5675.48 302.29 o
-1 7 3 3796.29 3253.82 338.08 o
1 7 -3 3800.49 3216.42 305.62 o
0 7 3 5559.73 4899.42 357.83 o
0 7 -3 5562.45 4656.32 340.14 o
1 7 3 2718.68 3183.69 288.55 o
-1 7 -3 2719.82 2646.06 327.41 o
2 7 3 13131.20 12561.80 342.30 o
-2 7 -3 13119.60 12538.40 365.42 o
3 7 3 2352.93 2599.31 284.60 o
-3 7 -3 2353.93 2300.11 313.33 o
4 7 3 2758.09 2753.59 322.59 o
-4 7 -3 2757.96 2814.36 327.12 o
5 7 3 1657.19 1472.63 285.44 o
-5 7 -3 1660.60 1299.66 486.48 o
6 7 3 3606.99 4015.84 246.06 o
-6 7 -3 3608.23 3754.04 476.55 o
7 7 3 38.03 -60.78 238.42 <
-7 7 -3 37.78 649.83 462.67 <
8 7 3 2910.82 2618.01 243.97 o
-8 7 -3 2909.15 2407.64 398.24 o
9 7 3 344.81 378.68 233.74 <
-9 7 -3 344.24 537.63 439.40 <
-10 8 3 892.56 944.35 299.16 o
10 8 -3 892.33 1005.13 317.81 o
-9 8 3 601.94 1168.76 331.48 o
9 8 -3 602.55 832.15 294.37 o
-8 8 3 92.10 -37.40 308.55 <
8 8 -3 92.39 168.30 289.84 <
-7 8 3 1098.84 813.45 327.46 o
7 8 -3 1099.78 1154.73 275.77 o
-6 8 3 232.14 313.23 252.43 <
6 8 -3 232.13 691.90 266.23 o
-5 8 3 60.65 140.25 289.84 <
5 8 -3 60.51 84.15 243.10 <
-4 8 3 2582.47 2805.01 298.66 o
4 8 -3 2581.64 2842.41 284.50 o
-3 8 3 2972.12 2856.44 336.87 o
3 8 -3 2969.83 2945.26 294.59 o
-2 8 3 290.27 -149.60 313.23 <
2 8 -3 291.27 252.45 285.19 <
-1 8 3 2523.36 2594.64 336.46 o
1 8 -3 2521.58 3001.36 265.11 o
0 8 3 870.26 1276.28 322.19 o
0 8 -3 870.67 579.70 313.39 <
1 8 3 468.68 243.10 294.59 <
-1 8 -3 469.18 98.18 322.64 <
2 8 3 1590.33 1753.13 327.03 o
-2 8 -3 1590.53 1566.13 308.58 o
3 8 3 1759.98 1832.61 322.47 o
-3 8 -3 1762.16 1729.76 308.60 o
4 8 3 178.68 130.90 308.56 <
-4 8 -3 178.74 285.18 285.15 <
5 8 3 1156.10 1014.48 308.68 o
-5 8 -3 1156.74 1514.71 476.57 o
6 8 3 380.10 420.75 233.73 <
-6 8 -3 380.54 509.58 462.79 <
7 8 3 253.94 575.03 242.94 o
-7 8 -3 253.43 149.60 406.74 <
8 8 3 203.09 420.75 252.37 <
-8 8 -3 203.01 224.40 448.80 <
-9 9 3 134.11 355.30 294.47 <
9 9 -3 134.33 308.55 322.54 <
-8 9 3 523.71 523.60 299.20 <
8 9 -3 523.32 794.75 308.39 o
-7 9 3 394.85 476.85 285.14 <
7 9 -3 394.69 603.08 308.45 <
-6 9 3 1340.54 1084.61 308.81 o
6 9 -3 1340.86 1210.83 271.31 o
-5 9 3 260.16 -70.13 280.51 <
5 9 -3 260.44 476.85 261.71 <
-4 9 3 4935.67 5310.83 311.57 o
4 9 -3 4937.08 5465.10 315.55 o
-3 9 3 2377.60 2295.44 313.39 o
3 9 -3 2377.61 2159.86 280.96 o
-2 9 3 379.69 603.08 345.86 <
2 9 -3 379.08 406.73 275.82 <
-1 9 3 909.84 939.68 322.55 o
1 9 -3 909.23 1201.48 312.95 o
0 9 3 2761.61 3001.36 326.68 o
0 9 -3 2760.58 2515.16 304.43 o
1 9 3 306.11 182.33 299.23 <
-1 9 -3 305.97 374.00 308.53 <
2 9 3 4229.44 5451.08 331.68 o
-2 9 -3 4228.36 3912.99 328.28 o
3 9 3 3905.38 4188.82 316.93 o
-3 9 -3 3905.95 3903.64 341.28 o
4 9 3 15.18 378.68 275.74 <
-4 9 -3 15.13 32.73 313.23 <
5 9 3 555.88 733.98 308.45 o
-5 9 -3 555.44 804.10 490.78 <
6 9 3 1214.54 1215.51 327.25 o
-6 9 -3 1214.23 1159.41 472.21 o
7 9 3 66.92 397.38 252.35 <
-7 9 -3 66.93 327.25 495.52 <
-7 10 3 93.95 467.50 322.47 <
7 10 -3 93.86 275.83 299.17 <
-6 10 3 169.60 486.20 364.56 <
6 10 -3 169.51 308.55 317.87 <
-5 10 3 1194.48 1697.03 373.45 o
5 10 -3 1193.79 1510.03 312.85 o
-4 10 3 57.34 322.58 364.61 <
4 10 -3 57.37 247.78 313.20 <
-3 10 3 156.01 355.30 350.58 <
3 10 -3 156.32 177.65 280.50 <
-2 10 3 612.54 916.30 364.47 o
2 10 -3 611.71 799.43 317.79 o
-1 10 3 303.12 406.73 299.17 <
1 10 -3 303.20 364.65 327.23 <
0 10 3 175.86 448.80 345.88 <
0 10 -3 175.46 416.08 341.21 <
1 10 3 1650.31 2080.39 331.26 o
-1 10 -3 1650.92 1640.93 355.31 o
2 10 3 384.95 729.30 359.82 o
-2 10 -3 384.98 500.23 327.21 <
3 10 3 103.64 392.70 308.48 <
-3 10 -3 103.78 663.85 341.07 <
4 10 3 137.21 472.18 308.45 <
-4 10 -3 137.42 266.48 331.90 <
5 10 3 255.96 355.30 327.23 <
-5 10 -3 255.63 864.88 485.98 <
-3 11 3 74.88 790.08 411.15 <
3 11 -3 74.82 448.80 322.48 <
-2 11 3 238.70 673.20 397.22 <
2 11 -3 238.96 345.95 350.60 <
-1 11 3 408.65 626.45 373.92 <
1 11 -3 409.05 1037.86 317.46 o
0 11 3 238.32 280.50 350.62 <
0 11 -3 238.25 617.10 350.48 <
1 11 3 76.06 635.80 308.33 o
-1 11 -3 75.98 532.95 317.76 <
15 0 -4 1723.56 1449.26 318.26 o
14 0 -4 612.35 944.35 289.60 o
13 0 -4 602.65 584.38 266.49 o
12 0 -4 8895.44 8059.74 314.52 o
11 0 -4 4826.77 4216.87 278.42 o
10 0 -4 72526.70 69442.80 636.36 o
9 0 -4 55663.40 52070.40 589.62 o
8 0 -4 5035.04 4843.32 309.36 o
7 0 -4 9020.83 8718.92 357.30 o
-6 0 4 108480.00 119279.00 1029.34 o
6 0 -4 108479.00 105511.00 1151.00 o
-5 0 4 56983.40 65300.70 1001.30 o
5 0 -4 57004.70 58741.70 905.73 o
-4 0 4 264425.00 247790.00 2621.49 o
4 0 -4 264308.00 253414.00 2428.91 o
-3 0 4 466329.00 434796.00 4173.45 o
-2 0 4 14331.40 14310.20 879.00 o
2 0 -4 14327.90 14717.00 961.48 o
-1 0 4 28240.60 28774.80 888.36 o
1 0 -4 28192.20 28541.00 843.05 o
0 0 4 344840.00 327537.00 2639.69 o
0 0 -4 344887.00 338294.00 2268.26 o
1 0 4 88895.00 87427.60 1043.32 o
-1 0 -4 88906.60 89564.10 965.67 o
2 0 4 122970.00 122336.00 1057.63 o
-2 0 -4 122959.00 121836.00 1077.06 o
3 0 4 258181.00 251236.00 1609.98 o
-3 0 -4 258165.00 254382.00 1505.37 o
4 0 4 499.64 532.95 359.96 <
-4 0 -4 504.01 518.93 252.44 o
5 0 4 348.99 -42.08 303.91 <
-5 0 -4 343.85 74.80 224.45 <
6 0 4 51006.40 50265.80 628.51 o
-6 0 -4 50976.40 50780.10 607.47 o
7 0 4 17553.40 17166.70 452.76 o
-7 0 -4 17564.50 16470.10 450.49 o
8 0 4 7404.84 7035.91 422.42 o
-8 0 -4 7410.26 7194.86 398.43 o
9 0 4 26597.60 26002.50 549.92 o
-9 0 -4 26592.50 26049.20 526.20 o
10 0 4 1150.24 1164.08 425.42 o
11 0 4 295.08 439.45 233.69 <
12 0 4 2552.83 2019.61 323.54 o
15 1 -4 94.49 359.98 233.67 <
14 1 -4 613.18 677.88 210.32 o
13 1 -4 94.96 280.50 196.30 <
12 1 -4 254.15 453.48 191.57 o
11 1 -4 1899.39 1855.98 187.12 o
10 1 -4 49.06 102.85 191.67 <
9 1 -4 1893.76 2010.26 191.36 o
-8 1 4 3196.99 3711.97 475.83 o
8 1 -4 3189.15 3099.54 238.74 o
-7 1 4 27.80 177.65 420.74 <
7 1 -4 28.16 -23.38 238.43 <
-6 1 4 6564.30 6736.71 490.25 o
6 1 -4 6561.59 6643.21 298.72 o
-5 1 4 6486.22 5867.15 469.64 o
5 1 -4 6480.32 6362.71 332.53 o
-4 1 4 722.39 813.45 458.11 <
4 1 -4 720.47 850.85 467.44 <
-3 1 4 23792.20 21486.40 830.11 o
3 1 -4 23792.30 21037.60 728.42 o
-2 1 4 4882.94 4039.22 488.20 o
2 1 -4 4887.91 4488.02 477.89 o
-1 1 4 5573.62 4506.72 377.68 o
1 1 -4 5565.25 4726.45 414.11 o
0 1 4 32818.10 29078.60 553.22 o
0 1 -4 32805.30 29490.00 543.19 o
1 1 4 1092.55 1168.76 341.21 o
-1 1 -4 1095.01 935.01 294.67 o
2 1 4 2469.63 1855.98 314.30 o
-2 1 -4 2467.44 2000.91 262.82 o
3 1 4 21065.90 21191.90 372.10 o
-3 1 -4 21067.10 20817.90 340.70 o
4 1 4 246.65 243.10 252.45 <
-4 1 -4 246.44 219.73 238.43 <
5 1 4 1066.63 1028.51 238.47 o
-5 1 -4 1068.48 855.53 238.65 o
6 1 4 10309.60 9892.35 284.45 o
-6 1 -4 10313.40 10219.60 272.10 o
7 1 4 440.18 486.20 219.70 o
-7 1 -4 440.36 509.58 261.77 <
8 1 4 239.85 46.75 271.17 <
-8 1 -4 240.60 -116.88 369.33 <
9 1 4 3349.11 3225.77 224.88 o
-9 1 -4 3349.76 3136.94 369.82 o
10 1 4 494.62 794.75 214.79 o
-10 1 -4 494.68 668.53 392.63 <
11 1 4 86.19 430.10 228.95 <
12 1 4 916.67 1117.33 210.11 o
14 2 -4 198.69 388.03 214.98 <
13 2 -4 5780.26 5502.50 240.16 o
12 2 -4 1611.04 1505.36 201.24 o
11 2 -4 235.18 112.20 196.38 <
10 2 -4 5273.20 5591.33 222.32 o
-9 2 4 2618.30 2861.11 401.60 o
9 2 -4 2620.60 3122.92 236.76 o
-8 2 4 3834.77 4277.65 414.90 o
8 2 -4 3835.50 3992.47 247.11 o
-7 2 4 32481.70 34810.20 542.02 o
7 2 -4 32482.40 33702.20 404.14 o
-6 2 4 31874.90 30411.00 636.35 o
6 2 -4 31855.90 31673.30 480.08 o
-5 2 4 1281.86 1435.23 458.03 o
5 2 -4 1280.33 1252.91 374.03 o
-4 2 4 17803.20 17727.70 650.38 o
4 2 -4 17800.60 18134.40 605.11 o
-3 2 4 8850.60 7194.86 678.27 o
3 2 -4 8850.11 8139.22 619.67 o
-2 2 4 12927.10 13445.40 444.70 o
2 2 -4 12920.70 12931.10 705.88 o
-1 2 4 31063.30 30939.30 488.31 o
1 2 -4 31079.30 28816.80 748.84 o
0 2 4 45718.20 44221.00 578.70 o
0 2 -4 45742.50 39340.30 1051.41 o
1 2 4 7983.56 8101.82 387.37 o
-1 2 -4 7987.17 7653.01 580.90 o
2 2 4 10750.90 12379.50 359.99 o
-2 2 -4 10749.30 10355.20 548.99 o
3 2 4 5965.19 6245.83 316.45 o
-3 2 -4 5967.91 6886.31 492.29 o
4 2 4 17170.60 16937.60 311.96 o
-4 2 -4 17182.60 18237.30 499.61 o
5 2 4 9305.38 9476.27 227.20 o
-5 2 -4 9309.06 9840.92 389.20 o
6 2 4 15691.30 15273.30 227.41 o
-6 2 -4 15697.20 19953.00 461.36 o
7 2 4 4009.03 3866.24 192.45 o
-7 2 -4 4011.15 3824.17 332.51 o
8 2 4 1925.26 2365.56 218.54 o
-8 2 -4 1924.04 2421.66 434.09 o
9 2 4 665.80 710.60 210.34 o
-9 2 -4 664.88 818.13 406.65 o
10 2 4 3653.46 3118.24 203.35 o
-10 2 -4 3650.80 2992.01 403.45 o
11 2 4 304.04 369.33 219.70 <
-11 2 -4 304.34 818.13 434.57 <
12 2 4 958.33 1075.26 238.29 o
-12 2 -4 958.88 939.68 388.04 o
14 3 -4 414.37 654.50 233.59 o
13 3 -4 98.85 411.40 224.29 <
12 3 -4 57.22 177.65 196.33 <
11 3 -4 815.48 888.25 205.62 o
-10 3 4 642.41 537.63 439.49 <
10 3 -4 640.93 645.15 257.12 o
-9 3 4 300.60 275.83 439.46 <
9 3 -4 300.07 490.88 233.66 o
-8 3 4 3973.17 3576.39 421.68 o
8 3 -4 3979.89 3627.82 263.14 o
-7 3 4 3264.57 3118.24 388.35 o
7 3 -4 3260.18 3417.44 280.00 o
-6 3 4 55.98 135.58 374.00 <
6 3 -4 56.06 70.13 374.00 <
-5 3 4 2611.98 2010.26 430.93 o
5 3 -4 2612.00 2061.69 435.53 o
-4 3 4 10525.20 10149.50 632.76 o
4 3 -4 10529.10 10056.00 609.87 o
-3 3 4 44.07 107.53 462.82 <
3 3 -4 44.25 233.75 327.23 <
-2 3 4 4883.19 4805.92 435.01 o
2 3 -4 4880.59 4646.97 542.84 o
-1 3 4 8478.16 9008.77 323.41 o
1 3 -4 8468.78 8344.92 594.19 o
0 3 4 803.62 696.58 215.15 o
0 3 -4 812.45 546.98 360.10 <
1 3 4 902.41 911.63 261.79 o
-1 3 -4 902.65 336.60 467.67 <
2 3 4 12229.40 12692.70 274.92 o
-2 3 -4 12232.40 12346.70 541.61 o
3 3 4 2708.60 2454.39 234.49 o
-3 3 -4 2707.74 1944.81 310.00 o
4 3 4 1019.45 832.15 191.91 o
-4 3 -4 1018.75 888.25 360.07 o
5 3 4 4755.44 4712.42 196.63 o
-5 3 -4 4754.89 4796.57 401.92 o
6 3 4 2472.89 2421.66 219.88 o
-6 3 -4 2468.30 2664.76 425.11 o
7 3 4 62.24 -172.98 201.00 <
-7 3 -4 62.31 116.88 411.40 <
8 3 4 2277.95 2248.69 201.11 o
-8 3 -4 2275.68 2889.16 405.65 o
9 3 4 1465.19 1598.86 205.43 o
-9 3 -4 1464.18 1037.86 411.73 o
10 3 4 54.25 -444.13 214.88 <
-10 3 -4 54.32 303.88 444.09 <
11 3 4 234.32 528.28 228.93 o
-11 3 -4 234.28 280.50 439.45 <
14 4 -4 78.77 411.40 247.67 <
13 4 -4 10.32 374.00 219.61 <
12 4 -4 3761.04 4235.57 231.53 o
11 4 -4 1116.73 836.83 248.06 o
-10 4 4 29091.30 32580.20 459.16 o
10 4 -4 29086.10 29892.10 390.76 o
-9 4 4 26262.70 29433.90 454.90 o
9 4 -4 26271.50 26343.80 485.16 o
-8 4 4 207.95 229.08 275.82 <
8 4 -4 207.31 322.58 303.85 <
-7 4 4 739.35 392.70 290.01 <
7 4 -4 746.18 635.80 360.03 <
-6 4 4 40655.60 42458.60 543.88 o
6 4 -4 40685.60 42252.90 612.64 o
-5 4 4 12676.50 13894.20 443.71 o
5 4 -4 12672.60 13192.90 411.71 o
-4 4 4 85674.30 89166.70 816.79 o
4 4 -4 85699.10 90976.00 616.89 o
-3 4 4 137543.00 147801.00 621.69 o
3 4 -4 137504.00 151401.00 2994.00 o
-2 4 4 153.06 158.95 313.23 <
2 4 -4 154.02 -93.50 308.55 <
-1 4 4 863.09 738.65 308.64 o
1 4 -4 867.63 963.05 271.06 o
0 4 4 84081.60 88830.10 481.92 o
0 4 -4 84044.30 92060.60 738.45 o
1 4 4 19688.90 21318.10 308.62 o
-1 4 -4 19691.90 23557.40 598.61 o
2 4 4 36733.90 38433.40 308.64 o
-2 4 -4 36739.00 41448.80 513.35 o
3 4 4 104139.00 101878.00 603.92 o
-3 4 -4 104139.00 109540.00 673.73 o
4 4 4 3304.21 4062.60 201.92 o
-4 4 -4 3311.52 4403.87 417.95 o
5 4 4 415.12 799.43 210.05 o
-5 4 -4 414.53 855.53 364.42 o
6 4 4 21786.20 21032.90 304.24 o
-6 4 -4 21787.30 23314.30 461.84 o
7 4 4 5151.20 5371.60 232.41 o
-7 4 -4 5147.24 5656.78 465.90 o
8 4 4 2863.79 3164.99 185.68 o
-8 4 -4 2864.79 3777.42 432.83 o
9 4 4 12188.60 12416.90 239.99 o
-9 4 -4 12192.60 14146.60 485.97 o
10 4 4 1705.16 1622.23 233.91 o
-10 4 -4 1704.89 2482.44 410.28 o
11 4 4 146.05 486.20 228.93 o
-11 4 -4 145.73 -18.70 434.78 <
13 5 -4 11.54 191.68 233.72 <
12 5 -4 6.54 280.50 280.45 <
-11 5 4 638.29 -130.90 383.42 <
11 5 -4 638.54 878.90 270.96 o
-10 5 4 90.93 102.85 294.52 <
10 5 -4 91.40 60.78 317.90 <
-9 5 4 573.94 537.63 289.87 <
9 5 -4 573.84 402.05 350.69 <
-8 5 4 180.54 98.18 289.86 <
8 5 -4 180.99 229.08 341.27 <
-7 5 4 182.48 172.98 271.15 <
7 5 -4 182.76 112.20 271.16 <
-6 5 4 460.01 729.30 285.02 o
6 5 -4 460.22 850.85 280.23 o
-5 5 4 2049.22 1930.78 308.75 o
5 5 -4 2051.24 2028.96 285.22 o
-4 5 4 4.33 9.35 355.30 <
4 5 -4 4.14 201.03 271.12 <
-3 5 4 3936.94 4095.32 392.27 o
3 5 -4 3938.40 4366.47 306.98 o
-2 5 4 44.89 187.00 303.86 <
2 5 -4 44.13 261.80 261.76 <
-1 5 4 1235.82 1070.58 332.08 o
1 5 -4 1240.03 1168.76 289.93 o
0 5 4 3734.62 4240.25 330.27 o
0 5 -4 3727.51 4100.00 316.66 o
1 5 4 677.74 458.15 247.90 <
-1 5 -4 674.76 677.88 289.85 o
2 5 4 304.02 -51.43 271.17 <
-2 5 -4 305.02 724.63 383.18 <
3 5 4 2840.95 3160.32 218.54 o
-3 5 -4 2838.95 3567.04 447.36 o
4 5 4 297.14 266.48 215.06 <
-4 5 -4 296.52 224.40 448.81 <
5 5 4 1012.63 691.90 220.04 o
-5 5 -4 1010.50 593.73 439.64 <
6 5 4 1554.58 1706.38 228.78 o
-6 5 -4 1557.02 2131.81 448.14 o
7 5 4 10.91 121.55 215.04 <
-7 5 -4 10.71 177.65 425.41 <
8 5 4 256.15 271.15 219.72 <
-8 5 -4 256.20 402.05 411.37 <
9 5 4 318.60 575.03 224.25 o
-9 5 -4 318.90 448.80 448.77 <
10 5 4 200.16 785.40 233.36 o
-10 5 -4 200.04 397.38 462.79 <
12 6 -4 420.76 336.60 271.18 <
-11 6 4 41.36 -126.23 388.02 <
11 6 -4 41.30 135.58 336.59 <
-10 6 4 3998.89 4198.17 317.21 o
10 6 -4 4000.79 4188.82 331.30 o
-9 6 4 275.51 687.23 294.32 o
9 6 -4 275.00 261.80 313.23 <
-8 6 4 614.48 892.93 284.97 o
8 6 -4 614.06 705.93 313.17 o
-7 6 4 4342.98 4838.65 334.76 o
7 6 -4 4337.60 4829.30 334.78 o
-6 6 4 5920.54 6624.51 361.35 o
6 6 -4 5920.48 7423.94 333.05 o
-5 6 4 1058.01 1159.41 327.16 o
5 6 -4 1057.14 1084.61 266.45 o
-4 6 4 11236.80 10191.60 349.78 o
4 6 -4 11240.60 10327.10 289.59 o
-3 6 4 1029.52 1262.26 294.28 o
3 6 -4 1032.53 2477.76 273.02 o
-2 6 4 2123.09 2286.09 312.92 o
2 6 -4 2125.75 1781.18 281.12 o
-1 6 4 3954.75 3898.97 280.71 o
1 6 -4 3955.62 4081.30 294.07 o
0 6 4 10276.10 9878.32 335.11 o
0 6 -4 10275.40 10294.40 345.80 o
1 6 4 4650.14 4553.47 313.60 o
-1 6 -4 4649.17 4459.97 304.63 o
2 6 4 7450.57 7110.71 347.84 o
-2 6 -4 7451.98 6979.81 334.62 o
3 6 4 643.31 299.20 332.04 <
-3 6 -4 640.76 98.18 509.66 <
4 6 4 2105.65 2660.09 251.00 o
-4 6 -4 2108.19 2557.24 490.29 o
5 6 4 975.17 1019.16 200.97 o
-5 6 -4 974.62 958.38 416.09 o
6 6 4 2996.46 2575.94 221.11 o
-6 6 -4 2996.11 2099.09 417.45 o
7 6 4 2905.82 2893.84 229.12 o
-7 6 -4 2904.25 1884.03 398.90 o
8 6 4 1237.92 1093.96 210.58 o
-8 6 -4 1238.19 818.13 453.71 <
9 6 4 185.04 378.68 233.68 <
-9 6 -4 184.23 579.70 434.67 <
10 6 4 557.45 897.60 238.13 o
-10 6 -4 557.60 1042.53 457.90 o
-12 7 4 234.15 322.58 458.14 <
12 7 -4 233.95 308.55 378.66 <
-11 7 4 15.10 345.95 322.51 <
11 7 -4 14.96 509.58 350.50 <
-10 7 4 954.42 892.93 327.30 o
10 7 -4 954.69 911.63 369.36 o
-9 7 4 2184.70 2258.04 280.35 o
9 7 -4 2184.51 2192.59 313.21 o
-8 7 4 755.05 972.41 299.03 o
8 7 -4 753.80 710.60 266.51 o
-7 7 4 3104.88 2935.91 285.65 o
7 7 -4 3106.20 3253.82 289.42 o
-6 7 4 1825.00 1888.71 313.12 o
6 7 -4 1825.62 2071.04 294.08 o
-5 7 4 318.28 285.18 313.23 <
5 7 -4 316.71 425.43 280.46 <
-4 7 4 9864.13 9667.95 361.39 o
4 7 -4 9870.74 9868.97 341.29 o
-3 7 4 4099.95 3777.42 356.24 o
3 7 -4 4103.48 3917.67 267.21 o
-2 7 4 2919.30 3118.24 359.53 o
2 7 -4 2922.53 3034.09 284.86 o
-1 7 4 9044.92 9359.40 348.41 o
1 7 -4 9037.44 8770.34 315.23 o
0 7 4 1699.94 1902.73 312.91 o
0 7 -4 1699.21 1575.48 318.07 o
1 7 4 620.35 350.63 289.96 <
-1 7 -4 621.27 481.53 299.27 <
2 7 4 11087.80 11888.60 362.55 o
-2 7 -4 11081.30 11257.50 335.04 o
3 7 4 601.10 813.45 317.77 o
-3 7 -4 600.54 275.83 500.29 <
4 7 4 1584.39 1430.56 238.68 o
-4 7 -4 1583.34 1753.13 434.60 o
5 7 4 3126.95 2949.94 220.37 o
-5 7 -4 3128.40 2828.39 472.67 o
6 7 4 229.18 196.35 224.41 <
-6 7 -4 229.54 46.75 434.79 <
7 7 4 47.64 -4.68 215.05 <
-7 7 -4 47.46 187.00 448.79 <
8 7 4 2083.09 1813.91 234.34 o
-8 7 -4 2083.38 1809.23 453.78 o
9 7 4 12.14 523.60 233.54 o
-9 7 -4 12.15 65.45 378.67 <
-10 8 4 2290.84 2215.96 313.37 o
10 8 -4 2290.03 1697.03 356.14 o
-9 8 4 2384.41 2164.54 336.99 o
9 8 -4 2384.58 2300.11 364.80 o
-8 8 4 542.68 748.00 299.08 o
8 8 -4 542.51 963.05 303.57 o
-7 8 4 1277.92 1276.28 317.90 o
7 8 -4 1279.62 911.63 280.86 o
-6 8 4 2403.28 2449.71 327.16 o
6 8 -4 2402.58 2370.24 294.60 o
-5 8 4 190.95 617.10 317.73 <
5 8 -4 190.12 -196.35 229.05 <
-4 8 4 5036.37 4922.80 304.37 o
4 8 -4 5033.00 4773.20 304.98 o
-3 8 4 11606.40 12318.70 405.79 o
3 8 -4 11603.90 10981.60 328.28 o
-2 8 4 2903.30 2571.26 337.31 o
2 8 -4 2905.41 2814.36 294.76 o
-1 8 4 1846.39 2080.39 322.19 o
1 8 -4 1849.88 1846.63 294.53 o
0 8 4 4376.92 4735.80 330.59 o
0 8 -4 4379.13 4614.25 335.76 o
1 8 4 185.38 294.53 303.85 <
-1 8 -4 184.54 392.70 313.17 <
2 8 4 2398.25 2038.31 323.22 o
-2 8 -4 2396.85 2795.66 321.70 o
3 8 4 7974.18 7610.94 343.46 o
-3 8 -4 7977.83 8050.39 336.14 o
4 8 4 3731.45 3464.19 309.37 o
-4 8 -4 3732.28 3973.77 499.73 o
5 8 4 919.34 1009.81 247.68 o
-5 8 -4 920.55 378.68 486.37 <
6 8 4 880.35 986.43 228.96 o
-6 8 -4 879.66 1009.81 481.46 o
7 8 4 72.09 172.98 238.41 <
-7 8 -4 71.68 261.80 458.13 <
8 8 4 249.25 556.33 228.91 o
-8 8 -4 248.82 748.00 439.28 <
-9 9 4 1.75 579.70 317.71 <
9 9 -4 1.72 229.08 322.55 <
-8 9 4 12.55 448.80 322.47 <
8 9 -4 12.60 766.70 308.21 o
-7 9 4 357.32 336.60 327.26 <
7 9 -4 357.15 504.90 261.73 <
-6 9 4 224.74 523.60 313.12 <
6 9 -4 224.66 158.95 303.89 <
-5 9 4 574.78 673.20 345.90 <
5 9 -4 574.50 420.75 271.22 <
-4 9 4 188.06 74.80 345.96 <
4 9 -4 187.15 266.48 285.16 <
-3 9 4 5.77 490.88 341.15 <
3 9 -4 5.68 46.75 275.83 <
-2 9 4 64.88 257.13 331.90 <
2 9 -4 65.08 -70.13 289.85 <
-1 9 4 948.80 1005.13 322.53 o
1 9 -4 949.22 649.83 304.07 o
0 9 4 94.30 570.35 317.74 <
0 9 -4 94.33 102.85 317.90 <
1 9 4 476.55 626.45 313.15 <
-1 9 -4 476.57 691.90 294.41 o
2 9 4 189.70 551.65 327.12 <
-2 9 -4 190.35 299.20 327.23 <
3 9 4 46.09 243.10 275.79 <
-3 9 -4 46.25 163.63 308.54 <
4 9 4 80.77 486.20 299.08 <
-4 9 -4 81.13 467.50 481.45 <
5 9 4 639.68 729.30 229.00 o
-5 9 -4 639.60 659.18 509.57 <
6 9 4 7.02 500.23 247.60 o
-6 9 -4 7.03 696.58 472.00 <
-7 10 4 178.80 752.68 317.63 o
7 10 -4 178.20 425.43 266.39 <
-6 10 4 372.98 359.98 336.61 <
6 10 -4 373.05 593.73 327.16 <
-5 10 4 188.26 224.40 378.67 <
5 10 -4 188.34 462.83 322.49 <
-4 10 4 2399.20 2805.01 391.97 o
4 10 -4 2399.62 1884.03 300.14 o
-3 10 4 70.50 130.90 378.67 <
3 10 -4 70.07 359.98 336.54 <
-2 10 4 211.33 224.40 388.02 <
2 10 -4 211.17 1051.88 312.67 o
-1 10 4 219.08 589.05 345.82 <
1 10 -4 218.18 490.88 285.07 <
0 10 4 558.22 490.88 313.26 <
0 10 -4 558.33 93.50 327.35 <
1 10 4 555.64 626.45 336.57 <
-1 10 -4 555.96 804.10 327.11 o
2 10 4 1571.09 1444.58 341.42 o
-2 10 -4 1572.40 1827.93 317.53 o
3 10 4 118.62 462.83 317.80 <
-3 10 -4 118.24 402.05 322.50 <
4 10 4 157.63 631.13 341.10 <
-4 10 -4 157.53 542.30 546.90 <
-2 11 4 584.64 963.05 420.55 o
2 11 -4 584.70 897.60 327.05 o
-1 11 4 809.46 1192.13 373.71 o
1 11 -4 809.37 1150.06 326.96 o
15 1 -5 1461.80 1374.46 233.89 o
14 1 -5 668.65 645.15 219.74 o
13 1 -5 1476.26 1065.91 201.68 o
12 1 -5 873.30 663.85 196.56 o
11 1 -5 3212.06 3066.82 206.29 o
10 1 -5 6587.82 6432.83 225.59 o
9 1 -5 22426.50 22725.30 321.70 o
-8 1 5 12135.00 12926.40 523.19 o
8 1 -5 12139.40 12412.20 286.74 o
-7 1 5 9698.35 10130.80 526.09 o
7 1 -5 9686.01 9518.35 291.33 o
-6 1 5 14954.60 14618.80 577.32 o
6 1 -5 14957.50 14179.30 432.41 o
-5 1 5 16596.70 16942.30 553.53 o
5 1 -5 16606.10 16535.60 528.87 o
-4 1 5 5468.58 6049.48 498.41 o
4 1 -5 5476.63 5923.25 498.85 o
-3 1 5 56336.50 51504.70 944.99 o
3 1 -5 56385.50 52103.10 859.72 o
-2 1 5 43786.00 40569.90 689.69 o
2 1 -5 43755.30 40649.30 696.62 o
-1 1 5 12010.70 11823.10 436.14 o
1 1 -5 11987.90 11860.50 403.06 o
0 1 5 10315.90 8873.19 383.50 o
0 1 -5 10330.00 9004.09 373.70 o
1 1 5 22626.60 21505.10 427.01 o
-1 1 -5 22624.90 22356.00 415.30 o
2 1 5 94.71 135.58 196.34 <
-2 1 -5 94.99 219.73 243.08 <
3 1 5 26661.80 24628.00 383.58 o
-3 1 -5 26668.20 25829.50 384.81 o
4 1 5 32299.80 28784.10 415.50 o
-4 1 -5 32304.00 28844.90 418.36 o
5 1 5 2253.45 2244.01 238.45 o
-5 1 -5 2254.22 2641.39 237.34 o
6 1 5 3458.05 3838.19 255.66 o
-6 1 -5 3457.88 3987.79 245.59 o
7 1 5 4490.43 4969.55 278.30 o
-7 1 -5 4486.66 4618.92 275.24 o
8 1 5 273.11 635.80 270.97 o
-8 1 -5 272.47 682.55 266.25 o
9 1 5 800.84 981.76 186.76 o
-9 1 -5 801.04 1977.53 372.67 o
10 1 5 4108.14 3852.22 230.25 o
-10 1 -5 4109.90 3725.99 435.68 o
11 1 5 12.49 243.10 247.74 <
-11 1 -5 12.43 383.35 387.96 <
15 2 -5 166.03 322.58 229.03 <
14 2 -5 58.87 308.55 224.33 <
13 2 -5 2.67 252.45 205.65 <
12 2 -5 411.62 659.18 210.20 o
11 2 -5 27.04 84.15 205.70 <
-10 2 5 208.59 191.68 425.43 <
10 2 -5 209.64 88.83 247.79 <
-9 2 5 1701.62 1926.11 462.59 o
9 2 -5 1702.08 1809.23 247.57 o
-8 2 5 625.15 448.80 411.46 <
8 2 -5 625.28 626.45 243.10 o
-7 2 5 17.23 575.03 425.29 <
7 2 -5 17.65 -14.03 257.13 <
-6 2 5 2505.76 2767.61 457.74 o
6 2 -5 2508.54 2309.46 393.02 o
-5 2 5 510.34 439.45 434.80 <
5 2 -5 508.76 345.95 434.82 <
-4 2 5 282.89 271.15 518.93 <
4 2 -5 280.30 130.90 345.97 <
-3 2 5 651.04 785.40 387.96 o
3 2 -5 653.34 1159.41 392.36 o
-2 2 5 1552.35 2113.11 406.02 o
2 2 -5 1553.47 2342.19 400.96 o
-1 2 5 100.13 37.40 336.61 <
1 2 -5 99.18 317.90 331.88 <
0 2 5 402.34 570.35 266.39 o
0 2 -5 406.55 575.03 317.83 <
1 2 5 587.56 654.50 303.84 o
-1 2 -5 590.04 645.15 294.49 o
2 2 5 1190.24 1014.48 280.68 o
-2 2 -5 1188.70 846.18 248.13 o
3 2 5 636.72 584.38 261.83 o
-3 2 -5 636.27 551.65 252.50 o
4 2 5 593.43 472.18 229.15 o
-4 2 -5 592.86 570.35 229.09 o
5 2 5 176.38 163.63 191.68 <
-5 2 -5 176.09 -486.20 341.14 <
6 2 5 852.15 967.73 191.53 o
-6 2 -5 850.91 1075.26 345.78 o
7 2 5 109.19 187.00 191.66 <
-7 2 -5 109.04 205.70 345.94 <
8 2 5 243.58 472.18 205.58 o
-8 2 -5 243.71 -9.35 294.54 <
9 2 5 61.74 233.75 210.34 <
-9 2 -5 61.61 -65.45 416.08 <
10 2 5 14.49 327.25 233.67 <
-10 2 -5 14.49 229.08 416.05 <
11 2 5 52.36 374.00 252.36 <
-11 2 -5 52.39 -116.88 388.02 <
14 3 -5 1767.91 1748.46 233.79 o
13 3 -5 3654.81 3244.47 244.62 o
12 3 -5 268.70 266.48 215.05 <
11 3 -5 77.92 271.15 238.38 <
-10 3 5 656.73 1070.58 322.26 o
10 3 -5 657.06 738.65 261.74 o
-9 3 5 12771.60 13412.60 533.41 o
9 3 -5 12770.00 12318.70 341.03 o
-8 3 5 29048.60 29616.30 557.75 o
8 3 -5 29036.90 28854.20 461.22 o
-7 3 5 19383.50 19167.60 502.44 o
7 3 -5 19383.90 18573.90 554.37 o
-6 3 5 5574.31 5446.40 411.86 o
6 3 -5 5567.31 5843.78 401.00 o
-5 3 5 775.96 448.80 425.54 <
5 3 -5 771.34 317.90 402.19 <
-4 3 5 30.38 -257.13 481.50 <
4 3 -5 31.40 149.60 453.47 <
-3 3 5 32273.10 32510.10 547.92 o
3 3 -5 32274.30 30518.60 699.03 o
-2 3 5 125510.00 126095.00 764.82 o
2 3 -5 125558.00 117203.00 1351.03 o
-1 3 5 18422.80 19345.20 341.87 o
1 3 -5 18410.30 18559.80 634.64 o
0 3 5 4583.71 4586.20 275.82 o
0 3 -5 4585.13 4296.35 491.57 o
1 3 5 928.89 1533.41 232.83 o
-1 3 -5 931.71 1369.78 434.45 o
2 3 5 387.21 635.80 200.84 o
-2 3 -5 389.11 163.63 275.88 <
3 3 5 12547.10 12893.70 247.73 o
-3 3 -5 12552.00 12145.70 493.58 o
4 3 5 65958.30 65660.70 392.21 o
-4 3 -5 65948.40 63800.00 782.72 o
5 3 5 1192.88 1332.38 200.79 o
-5 3 -5 1195.91 757.35 374.28 o
6 3 5 1119.23 888.25 196.65 o
-6 3 -5 1118.64 850.85 378.85 o
7 3 5 68.54 364.65 191.57 <
-7 3 -5 67.53 74.80 430.10 <
8 3 5 49.77 28.05 201.03 <
-8 3 -5 49.80 65.45 406.73 <
9 3 5 241.90 341.28 177.60 <
-9 3 -5 241.66 -341.28 430.05 <
10 3 5 8486.99 7554.84 246.49 o
-10 3 -5 8487.61 8167.27 492.32 o
11 3 5 46.55 402.05 261.70 <
-11 3 -5 46.55 18.70 439.45 <
14 4 -5 302.89 621.78 233.56 o
13 4 -5 108.89 444.13 228.95 <
12 4 -5 1401.56 1215.51 262.04 o
-11 4 5 315.56 369.33 402.04 <
11 4 -5 315.53 322.58 257.12 <
-10 4 5 933.20 832.15 444.18 <
10 4 -5 934.89 832.15 275.91 o
-9 4 5 3667.92 3225.77 459.02 o
9 4 -5 3669.00 3389.39 332.71 o
-8 4 5 2527.54 2206.61 416.55 o
8 4 -5 2528.91 2052.34 337.44 o
-7 4 5 604.10 836.83 327.11 o
7 4 -5 604.06 556.33 369.35 <
-6 4 5 10280.90 10135.50 435.68 o
6 4 -5 10282.10 10027.90 413.07 o
-5 4 5 1290.97 1014.48 290.13 o
5 4 -5 1289.76 1065.91 388.20 o
-4 4 5 2087.63 2071.04 444.15 o
4 4 -5 2087.06 1949.48 397.56 o
-3 4 5 19889.70 22178.30 378.30 o
3 4 -5 19893.80 20411.20 551.29 o
-2 4 5 3751.05 3740.02 266.52 o
2 4 -5 3755.44 3164.99 459.31 o
-1 4 5 324.66 79.48 243.15 <
1 4 -5 327.34 -144.93 420.76 <
0 4 5 18004.20 18667.40 288.09 o
0 4 -5 18000.40 16502.80 563.83 o
1 4 5 1292.59 1033.18 243.42 o
-1 4 -5 1297.54 1299.66 420.75 o
2 4 5 352.67 406.73 205.67 <
-2 4 -5 353.34 317.90 402.06 <
3 4 5 12757.80 13178.90 256.15 o
-3 4 -5 12753.60 12893.70 457.10 o
4 4 5 964.45 1159.41 205.42 o
-4 4 -5 963.36 677.88 388.18 <
5 4 5 354.98 210.38 215.10 <
-5 4 -5 356.09 252.45 439.47 <
6 4 5 2863.86 3094.87 223.57 o
-6 4 -5 2865.85 2618.01 323.13 o
7 4 5 182.51 509.58 214.89 o
-7 4 -5 182.27 130.90 369.33 <
8 4 5 112.93 229.08 215.02 <
-8 4 -5 113.22 -102.85 313.22 <
9 4 5 1445.30 1425.88 229.11 o
-9 4 -5 1446.44 1262.26 472.32 o
10 4 5 34.90 481.53 224.23 o
-10 4 -5 34.88 509.58 406.62 <
13 5 -5 35.52 261.80 257.08 <
-12 5 5 309.98 719.95 383.19 <
12 5 -5 311.39 275.83 303.89 <
-11 5 5 3942.45 5895.20 452.15 o
11 5 -5 3943.95 4618.92 343.66 o
-10 5 5 7418.12 8667.49 471.05 o
10 5 -5 7418.50 8022.34 337.57 o
-9 5 5 7382.27 8709.57 461.20 o
9 5 -5 7376.55 8003.64 356.34 o
-8 5 5 391.10 416.08 345.94 <
8 5 -5 391.04 374.00 350.63 <
-7 5 5 309.77 247.78 341.29 <
7 5 -5 307.94 308.55 355.30 <
-6 5 5 3660.36 3936.37 359.19 o
6 5 -5 3655.36 3969.09 330.95 o
-5 5 5 22997.30 23711.70 538.74 o
5 5 -5 22993.40 23894.00 469.61 o
-4 5 5 8633.59 8901.24 414.56 o
4 5 -5 8626.37 9322.00 336.30 o
-3 5 5 21697.10 22360.60 473.32 o
3 5 -5 21699.50 22472.80 380.86 o
-2 5 5 2137.19 2543.21 307.70 o
2 5 -5 2141.48 2608.66 302.87 o
-1 5 5 857.59 827.48 252.48 o
1 5 -5 856.27 640.48 416.18 <
0 5 5 4979.54 4978.90 257.13 o
0 5 -5 4981.29 5960.65 469.05 o
1 5 5 30807.60 31593.80 326.41 o
-1 5 -5 30803.70 34707.40 568.24 o
2 5 5 750.31 542.30 224.55 o
-2 5 -5 750.88 350.63 369.47 <
3 5 5 9354.48 9354.72 252.45 o
-3 5 -5 9351.43 10135.50 477.22 o
4 5 5 1147.91 1421.21 238.02 o
-4 5 -5 1145.78 1954.16 419.89 o
5 5 5 332.64 266.48 224.42 <
-5 5 -5 333.77 682.55 434.66 <
6 5 5 1201.18 1612.88 200.22 o
-6 5 -5 1201.08 1916.76 307.51 o
7 5 5 9031.57 8980.72 234.27 o
-7 5 -5 9036.15 11117.20 483.74 o
8 5 5 191.48 -14.03 215.07 <
-8 5 -5 191.79 261.80 453.47 <
9 5 5 558.22 696.58 233.65 o
-9 5 -5 558.52 458.15 406.76 <
10 5 5 336.82 378.68 224.38 <
-10 5 -5 336.02 687.23 490.77 <
13 6 -5 10.01 289.85 327.21 <
-12 6 5 441.32 607.75 458.10 <
12 6 -5 441.39 673.20 327.14 o
-11 6 5 78.79 229.08 280.48 <
11 6 -5 78.82 93.50 299.20 <
-10 6 5 142.95 261.80 402.03 <
10 6 -5 142.51 247.78 359.96 <
-9 6 5 1723.82 1687.68 350.67 o
9 6 -5 1723.17 1949.48 359.66 o
-8 6 5 2106.76 2033.64 336.72 o
8 6 -5 2107.73 1949.48 327.51 o
-7 6 5 58.58 -32.73 317.90 <
7 6 -5 59.07 102.85 285.17 <
-6 6 5 2930.19 3160.32 336.04 o
6 6 -5 2930.90 3024.74 336.38 o
-5 6 5 1380.29 1215.51 346.11 o
5 6 -5 1378.73 1210.83 280.70 o
-4 6 5 445.03 892.93 350.37 o
4 6 -5 445.27 528.28 266.43 <
-3 6 5 3259.67 3277.19 345.91 o
3 6 -5 3258.49 3155.64 285.48 o
-2 6 5 5051.38 4431.92 348.16 o
2 6 -5 5050.21 5385.63 283.52 o
-1 6 5 298.89 -18.70 266.50 <
1 6 -5 298.94 46.75 275.86 <
0 6 5 3797.64 3922.34 317.49 o
0 6 -5 3796.88 3454.84 342.23 o
1 6 5 2065.71 2014.93 299.29 o
-1 6 -5 2069.15 1898.06 449.00 o
2 6 5 894.21 757.35 243.22 o
-2 6 -5 895.63 682.55 514.34 <
3 6 5 737.64 701.25 238.46 o
-3 6 -5 738.26 219.73 495.66 <
4 6 5 1803.22 1332.38 257.85 o
-4 6 -5 1803.59 1884.03 341.16 o
5 6 5 37.27 42.08 219.73 <
-5 6 -5 37.06 126.23 392.70 <
6 6 5 898.60 1201.48 219.32 o
-6 6 -5 898.38 1323.03 439.15 o
7 6 5 401.46 434.78 196.33 o
-7 6 -5 401.27 448.80 411.39 <
8 6 5 318.36 42.08 224.45 <
-8 6 -5 317.90 733.98 481.39 <
9 6 5 66.29 486.20 242.94 <
-9 6 -5 65.98 444.13 462.76 <
-12 7 5 14.96 233.75 439.43 <
12 7 -5 14.88 285.18 373.96 <
-11 7 5 46.42 56.10 378.68 <
11 7 -5 46.33 252.45 322.55 <
-10 7 5 158.41 238.43 322.56 <
10 7 -5 158.60 177.65 336.60 <
-9 7 5 1364.74 1514.71 350.46 o
9 7 -5 1363.60 1238.88 355.42 o
-8 7 5 10380.80 9719.37 397.14 o
8 7 -5 10383.00 9990.52 409.32 o
-7 7 5 3190.31 3150.97 318.01 o
7 7 -5 3190.98 3581.07 312.08 o
-6 7 5 1.38 -37.40 289.85 <
6 7 -5 1.41 18.70 243.10 <
-5 7 5 992.68 953.71 341.31 o
5 7 -5 993.33 860.20 294.64 o
-4 7 5 387.55 476.85 355.27 <
4 7 -5 387.12 411.40 229.07 <
-3 7 5 2085.99 2061.69 341.32 o
3 7 -5 2088.28 2501.14 303.02 o
-2 7 5 33578.50 31921.10 506.06 o
2 7 -5 33578.90 34010.80 397.02 o
-1 7 5 1129.05 1262.26 322.44 o
1 7 -5 1128.97 776.05 280.80 o
0 7 5 25.87 -51.43 303.88 <
0 7 -5 25.76 18.70 294.53 <
1 7 5 1700.39 1388.48 276.28 o
-1 7 -5 1696.61 818.13 533.44 <
2 7 5 394.82 486.20 243.06 <
-2 7 -5 394.91 322.58 509.59 <
3 7 5 573.00 668.53 224.33 o
-3 7 -5 572.68 88.83 472.25 <
4 7 5 20810.70 21009.60 304.93 o
-4 7 -5 20807.10 19836.10 593.24 o
5 7 5 56.93 -154.28 238.41 <
-5 7 -5 56.94 -126.23 453.47 <
6 7 5 76.92 -130.90 229.06 <
-6 7 -5 76.82 434.78 420.68 <
7 7 5 271.93 504.90 247.67 o
-7 7 -5 271.05 584.38 495.47 <
8 7 5 130.69 514.25 228.90 o
-8 7 -5 130.66 551.65 472.08 <
-10 8 5 539.47 1014.48 373.71 o
10 8 -5 539.47 911.63 355.08 o
-9 8 5 706.48 1014.48 359.77 o
9 8 -5 706.71 1014.48 341.06 o
-8 8 5 585.40 757.35 331.83 o
8 8 -5 585.92 776.05 294.40 o
-7 8 5 242.90 102.85 317.92 <
7 8 -5 241.93 434.78 317.84 <
-6 8 5 2052.24 2225.31 350.34 o
6 8 -5 2050.61 2169.21 308.33 o
-5 8 5 102.84 224.40 313.21 <
5 8 -5 102.39 299.20 233.70 <
-4 8 5 1695.18 1827.93 345.77 o
4 8 -5 1694.15 1589.51 247.96 o
-3 8 5 3587.12 3796.12 350.03 o
3 8 -5 3587.13 3697.94 303.52 o
-2 8 5 952.01 991.10 308.52 o
2 8 -5 951.28 1122.01 252.26 o
-1 8 5 280.70 453.48 336.55 <
1 8 -5 281.45 252.45 229.09 <
0 8 5 2647.65 2949.94 340.60 o
0 8 -5 2648.31 2575.94 318.06 o
1 8 5 96.84 56.10 299.20 <
-1 8 -5 97.34 467.50 252.32 <
2 8 5 867.56 841.50 313.24 o
-2 8 -5 867.82 780.73 504.94 <
3 8 5 3103.99 3328.62 237.61 o
-3 8 -5 3104.50 3085.52 504.93 o
4 8 5 158.20 504.90 238.27 o
-4 8 -5 158.49 233.75 462.82 <
5 8 5 53.24 182.33 229.05 <
-5 8 -5 53.38 388.03 509.53 <
6 8 5 654.40 691.90 233.72 o
-6 8 -5 654.12 1065.91 490.67 o
7 8 5 3.95 369.33 238.32 <
-7 8 -5 3.95 355.30 504.86 <
-9 9 5 853.07 1145.38 359.75 o
9 9 -5 852.43 785.40 355.34 o
-8 9 5 90.96 355.30 317.84 <
8 9 -5 91.24 364.65 299.14 <
-7 9 5 5.99 -102.85 336.60 <
7 9 -5 6.00 439.45 322.47 <
-6 9 5 268.45 448.80 345.90 <
6 9 -5 269.12 121.55 280.52 <
-5 9 5 3486.46 3440.82 341.40 o
5 9 -5 3485.93 3697.94 307.89 o
-4 9 5 1173.57 1505.36 322.19 o
4 9 -5 1174.05 1290.31 275.69 o
-3 9 5 2088.66 1626.91 337.25 o
3 9 -5 2088.98 2136.49 242.99 o
-2 9 5 116.37 472.18 322.47 <
2 9 -5 116.33 397.38 275.74 <
-1 9 5 138.54 518.93 341.16 <
1 9 -5 138.10 154.28 247.77 <
0 9 5 391.94 219.73 331.96 <
0 9 -5 392.34 317.90 261.83 <
1 9 5 4764.66 4983.57 326.37 o
-1 9 -5 4765.53 4810.60 317.72 o
2 9 5 132.91 570.35 313.07 <
-2 9 -5 132.99 575.03 537.53 <
3 9 5 1000.77 1033.18 261.77 o
-3 9 -5 1000.06 883.58 490.94 <
4 9 5 169.65 551.65 252.28 o
-4 9 -5 169.01 691.90 514.11 <
5 9 5 163.05 593.73 242.89 o
-5 9 -5 162.85 472.18 523.54 <
-7 10 5 203.43 603.08 364.51 <
7 10 -5 203.71 355.30 336.57 <
-6 10 5 99.30 486.20 331.82 <
6 10 -5 99.42 215.05 299.18 <
-5 10 5 262.83 504.90 355.23 <
5 10 -5 262.66 518.93 294.43 <
-4 10 5 52.26 -4.68 378.68 <
4 10 -5 52.15 163.63 322.57 <
-3 10 5 24.18 341.28 392.65 <
3 10 -5 24.18 149.60 280.49 <
-2 10 5 1136.21 991.10 360.09 o
2 10 -5 1135.62 1126.68 289.86 o
-1 10 5 320.06 490.88 350.57 <
1 10 -5 320.27 631.13 313.09 o
0 10 5 105.36 776.05 275.47 o
0 10 -5 105.31 191.68 294.51 <
1 10 5 382.02 911.63 336.29 o
-1 10 -5 382.56 542.30 322.51 <
2 10 5 13.82 289.85 331.88 <
-2 10 -5 13.72 430.10 546.92 <
3 10 5 39.83 425.43 280.39 <
-3 10 -5 39.76 345.95 490.84 <
15 0 -6 233.60 570.35 364.54 <
14 0 -6 600.78 719.95 299.13 o
13 0 -6 300.33 383.35 280.47 <
12 0 -6 287.99 154.28 271.18 <
11 0 -6 17447.50 17802.50 360.03 o
10 0 -6 411.73 336.60 285.20 <
9 0 -6 1217.34 1262.26 280.45 o
-8 0 6 1758.93 1411.86 416.42 o
8 0 -6 1757.94 1528.73 425.66 o
-7 0 6 1727.19 1748.46 448.78 o
7 0 -6 1731.03 1603.53 383.50 o
-6 0 6 81.32 98.18 542.30 <
6 0 -6 80.31 215.05 411.39 <
-5 0 6 89387.50 84669.30 1345.48 o
5 0 -6 89388.90 86254.20 1247.40 o
-4 0 6 2076.57 2122.46 584.33 o
4 0 -6 2068.04 1753.13 537.92 o
-3 0 6 934.83 233.75 495.73 <
3 0 -6 928.34 233.75 481.71 <
-2 0 6 12564.10 12463.60 617.65 o
2 0 -6 12546.20 12374.80 552.68 o
-1 0 6 444.66 612.43 532.91 <
1 0 -6 442.78 444.13 490.88 <
0 0 6 3440.02 3122.92 491.43 o
0 0 -6 3430.54 3323.94 346.23 o
1 0 6 72740.30 68989.30 887.18 o
-1 0 -6 72743.20 68203.90 837.06 o
2 0 6 3430.70 2491.79 389.83 o
-2 0 -6 3429.22 2688.14 380.21 o
3 0 6 350.65 -158.95 345.96 <
-3 0 -6 351.47 673.20 341.13 <
4 0 6 1285.58 1435.23 313.05 o
-4 0 -6 1282.57 1210.83 327.32 o
5 0 6 178.22 495.55 308.45 <
-5 0 -6 177.71 271.15 299.18 <
6 0 6 3748.76 3562.37 374.48 o
-6 0 -6 3747.30 3193.04 361.36 o
7 0 6 13320.40 11897.90 431.76 o
-7 0 -6 13325.90 11580.00 388.85 o
8 0 6 917.82 1168.76 261.52 o
-8 0 -6 920.53 808.78 317.98 o
9 0 6 245.20 327.25 383.33 <
-9 0 -6 245.72 177.65 359.99 <
10 0 6 310.33 537.63 406.66 <
11 0 6 208.41 509.58 285.06 <
15 1 -6 110.59 336.60 233.68 <
14 1 -6 314.07 504.90 214.95 o
13 1 -6 692.94 546.98 205.81 o
12 1 -6 246.96 149.60 187.03 <
11 1 -6 2202.94 2071.04 215.40 o
10 1 -6 1260.53 949.03 248.13 o
-9 1 6 212.71 523.60 392.61 <
9 1 -6 213.84 322.58 219.69 <
-8 1 6 7695.05 7699.76 495.53 o
8 1 -6 7700.25 7409.91 282.57 o
-7 1 6 2438.22 2407.64 481.57 o
7 1 -6 2440.60 2000.91 323.36 o
-6 1 6 190.65 331.93 364.62 <
6 1 -6 190.31 144.93 374.01 <
-5 1 6 18240.60 17737.00 565.27 o
5 1 -6 18245.50 17657.60 556.70 o
-4 1 6 717.94 673.20 430.12 <
4 1 -6 717.67 705.93 378.68 <
-3 1 6 409.50 112.20 374.05 <
3 1 -6 409.08 -46.75 369.36 <
-2 1 6 23472.50 24408.30 478.47 o
2 1 -6 23477.70 24511.10 501.14 o
-1 1 6 84.08 70.13 327.25 <
1 1 -6 83.70 28.05 303.88 <
0 1 6 498.18 -14.03 275.90 <
0 1 -6 499.93 275.83 299.27 <
1 1 6 24974.10 23440.60 394.96 o
-1 1 -6 24979.90 24183.90 414.76 o
2 1 6 553.99 719.95 261.69 o
-2 1 -6 555.31 673.20 266.40 o
3 1 6 156.71 215.05 215.04 <
-3 1 -6 157.34 42.08 233.76 <
4 1 6 16089.50 14908.60 306.02 o
-4 1 -6 16087.50 14978.80 287.40 o
5 1 6 1064.21 771.38 220.04 o
-5 1 -6 1064.62 1093.96 219.69 o
6 1 6 95.88 187.00 182.30 <
-6 1 -6 95.78 243.10 233.72 <
7 1 6 5387.89 5474.45 270.69 o
-7 1 -6 5387.20 5077.08 249.50 o
8 1 6 999.20 1290.31 252.08 o
-8 1 -6 999.32 1346.41 406.45 o
9 1 6 74.63 46.75 266.48 <
-9 1 -6 74.48 107.53 271.15 <
10 1 6 1342.70 1332.38 201.04 o
-10 1 -6 1342.74 1552.11 415.88 o
11 1 6 459.40 869.55 252.13 o
-11 1 -6 459.42 972.41 443.88 o
15 2 -6 1459.89 1411.86 238.50 o
14 2 -6 14383.10 12739.40 291.84 o
13 2 -6 884.52 897.60 224.39 o
12 2 -6 345.39 490.88 200.94 o
11 2 -6 7131.01 6619.83 293.03 o
-10 2 6 41.06 -84.15 411.40 <
10 2 -6 40.82 252.45 247.74 <
-9 2 6 4267.93 4796.57 480.17 o
9 2 -6 4265.45 3819.49 268.24 o
-8 2 6 164075.00 157473.00 1396.47 o
8 2 -6 164088.00 155314.00 1260.45 o
-7 2 6 287.76 336.60 448.79 <
7 2 -6 287.70 406.73 355.27 <
-6 2 6 525.05 350.63 331.98 <
6 2 -6 525.15 631.13 420.71 <
-5 2 6 58790.60 60621.00 830.32 o
5 2 -6 58813.80 57858.10 813.20 o
-4 2 6 24.83 -102.85 514.25 <
4 2 -6 24.70 140.25 420.74 <
-3 2 6 37.48 -149.60 355.29 <
3 2 -6 37.10 -74.80 369.32 <
-2 2 6 440420.00 421846.00 2867.96 o
2 2 -6 440400.00 420761.00 2899.08 o
-1 2 6 3872.18 2842.41 288.23 o
1 2 -6 3865.35 3020.06 324.88 o
0 2 6 65.59 4.68 247.78 <
0 2 -6 66.53 317.90 252.39 <
1 2 6 55307.50 52921.30 568.59 o
-1 2 -6 55294.10 55342.90 494.10 o
2 2 6 1284.96 729.30 262.32 o
-2 2 -6 1286.43 953.71 252.82 o
3 2 6 5682.84 5362.25 235.74 o
-3 2 -6 5677.34 5371.60 272.79 o
4 2 6 126434.00 119802.00 888.63 o
-4 2 -6 126419.00 123837.00 731.73 o
5 2 6 5188.61 5282.78 265.98 o
-5 2 -6 5192.40 5226.68 228.87 o
6 2 6 246.03 285.18 224.39 <
-6 2 -6 247.79 -4.68 364.67 <
7 2 6 4565.00 4371.15 216.12 o
-7 2 -6 4562.23 4160.77 319.35 o
8 2 6 108.35 18.70 191.68 <
-8 2 -6 107.27 -177.65 350.61 <
9 2 6 2173.11 1963.51 201.59 o
-9 2 -6 2172.59 1776.51 430.57 o
10 2 6 8617.06 7910.14 267.60 o
-10 2 -6 8617.61 9064.87 441.73 o
14 3 -6 476.27 645.15 238.32 o
13 3 -6 169.04 233.75 224.38 <
12 3 -6 356.98 822.80 261.48 o
-11 3 6 1164.57 1178.11 420.74 o
11 3 -6 1163.30 1042.53 257.26 o
-10 3 6 451.18 1014.48 425.14 o
10 3 -6 450.72 589.05 280.43 o
-9 3 6 1201.56 1402.51 439.29 o
9 3 -6 1198.61 1542.76 308.13 o
-8 3 6 5934.89 6876.96 463.96 o
8 3 -6 5930.68 6647.88 413.12 o
-7 3 6 58.05 -168.30 383.34 <
7 3 -6 57.92 425.43 341.19 <
-6 3 6 1342.37 1519.38 331.72 o
6 3 -6 1343.48 1079.93 290.13 o
-5 3 6 14687.80 15941.80 523.12 o
5 3 -6 14689.30 15189.20 496.21 o
-4 3 6 149.92 4.68 523.61 <
4 3 -6 149.31 -121.55 434.77 <
-3 3 6 3186.93 2683.46 300.48 o
3 3 -6 3191.06 2482.44 459.27 o
-2 3 6 27192.60 26965.50 382.98 o
2 3 -6 27180.20 25362.00 659.84 o
-1 3 6 2096.69 1790.53 243.74 o
1 3 -6 2094.47 1725.08 467.89 o
0 3 6 560.84 430.10 229.15 <
0 3 -6 556.94 378.68 425.48 <
1 3 6 20166.90 21219.90 273.91 o
-1 3 -6 20149.60 18517.80 457.94 o
2 3 6 2156.72 2042.99 182.67 o
-2 3 -6 2155.47 1827.93 267.11 o
3 3 6 927.40 1037.86 200.88 o
-3 3 -6 928.33 878.90 369.36 o
4 3 6 7413.23 7868.06 224.95 o
-4 3 -6 7415.51 6736.71 414.45 o
5 3 6 2615.80 2641.39 182.23 o
-5 3 -6 2615.35 2805.01 378.31 o
6 3 6 184.04 397.38 205.61 <
-6 3 -6 183.84 649.83 387.87 <
7 3 6 2854.72 3048.11 214.33 o
-7 3 -6 2856.94 2678.79 383.69 o
8 3 6 1159.98 930.33 206.00 o
-8 3 -6 1159.52 1243.56 397.31 o
9 3 6 169.06 233.75 210.36 <
-9 3 -6 169.18 205.70 434.77 <
10 3 6 497.99 916.30 242.74 o
-10 3 -6 498.06 163.63 458.21 <
14 4 -6 545.72 738.65 256.99 o
13 4 -6 320.71 467.50 299.15 <
-12 4 6 20.16 102.85 317.90 <
12 4 -6 20.29 364.65 294.45 <
-11 4 6 8176.10 7919.49 380.12 o
11 4 -6 8176.38 7811.96 362.11 o
-10 4 6 16.15 196.35 444.11 <
10 4 -6 16.54 -126.23 317.89 <
-9 4 6 1668.33 1711.06 402.00 o
9 4 -6 1668.67 1519.38 374.17 o
-8 4 6 2522.42 2374.91 463.03 o
8 4 -6 2525.76 2945.26 373.16 o
-7 4 6 1422.97 2038.31 377.88 o
7 4 -6 1421.06 1715.73 378.34 o
-6 4 6 877.91 528.28 271.37 <
6 4 -6 881.46 977.08 350.56 o
-5 4 6 39078.30 36385.70 707.44 o
5 4 -6 39072.80 37657.30 649.02 o
-4 4 6 3444.02 3183.69 374.61 o
4 4 -6 3442.39 3277.19 444.46 o
-3 4 6 1867.53 1795.21 266.61 o
3 4 -6 1869.47 874.23 416.85 o
-2 4 6 5863.59 5250.05 283.67 o
2 4 -6 5855.77 5254.73 469.37 o
-1 4 6 2331.86 1767.16 239.66 o
1 4 -6 2337.10 1407.18 454.42 o
0 4 6 3659.82 3866.24 218.77 o
0 4 -6 3658.97 3085.52 333.43 o
1 4 6 31149.80 32659.70 322.01 o
-1 4 -6 31159.90 27835.10 639.85 o
2 4 6 3994.58 3987.79 243.13 o
-2 4 -6 3993.82 2258.04 345.10 o
3 4 6 78.88 285.18 200.97 <
-3 4 -6 80.26 -327.25 369.27 <
4 4 6 2794.65 2402.96 197.69 o
-4 4 -6 2791.07 2000.91 379.93 o
5 4 6 107.59 187.00 219.71 <
-5 4 -6 106.23 626.45 383.19 <
6 4 6 2007.55 2117.79 210.09 o
-6 4 -6 2008.15 2276.74 387.62 o
7 4 6 5210.29 4394.52 219.72 o
-7 4 -6 5210.34 4188.82 340.25 o
8 4 6 1112.89 995.78 219.87 o
-8 4 -6 1112.75 1266.93 472.07 o
9 4 6 85.01 247.78 215.01 <
-9 4 -6 85.21 822.80 397.09 o
10 4 6 437.14 822.80 242.81 o
-10 4 -6 436.49 813.45 341.07 o
13 5 -6 713.23 939.68 336.45 o
-12 5 6 186.06 331.93 453.45 <
12 5 -6 185.79 411.40 345.89 <
-11 5 6 93.85 116.88 392.70 <
11 5 -6 93.78 -4.68 364.65 <
-10 5 6 811.94 584.38 388.13 <
10 5 -6 810.79 719.95 392.75 <
-9 5 6 1114.07 1776.51 466.91 o
9 5 -6 1114.56 1243.56 425.33 o
-8 5 6 114.53 163.63 374.00 <
8 5 -6 114.50 46.75 374.01 <
-7 5 6 5224.43 5119.15 313.69 o
7 5 -6 5223.97 5376.28 392.15 o
-6 5 6 1927.42 2477.76 391.84 o
6 5 -6 1929.25 1612.88 379.06 o
-5 5 6 1582.20 1383.81 350.85 o
5 5 -6 1580.55 1351.08 378.91 o
-4 5 6 3440.93 3337.97 313.52 o
4 5 -6 3441.72 3113.57 388.75 o
-3 5 6 7368.37 6685.28 248.23 o
3 5 -6 7361.89 7199.54 421.50 o
-2 5 6 2738.42 2851.76 242.75 o
2 5 -6 2741.42 2000.91 379.85 o
-1 5 6 5954.76 6395.43 244.79 o
1 5 -6 5957.53 5614.70 454.63 o
0 5 6 2771.74 2688.14 238.68 o
0 5 -6 2763.37 2089.74 314.55 o
1 5 6 3392.10 3015.39 239.75 o
-1 5 -6 3398.31 2491.79 427.01 o
2 5 6 1106.64 1351.08 205.30 o
-2 5 -6 1106.53 1435.23 397.08 o
3 5 6 4320.90 3917.67 249.53 o
-3 5 -6 4322.02 4034.55 416.84 o
4 5 6 3197.51 2898.51 248.74 o
-4 5 -6 3197.26 2903.19 439.99 o
5 5 6 368.90 546.98 238.33 o
-5 5 -6 368.66 416.08 313.21 <
6 5 6 772.03 593.73 224.54 o
-6 5 -6 773.84 626.45 416.14 <
7 5 6 864.06 1000.45 210.21 o
-7 5 -6 862.82 1416.53 443.72 o
8 5 6 7.84 201.03 229.04 <
-8 5 -6 7.88 430.10 397.30 <
9 5 6 561.98 635.80 210.32 o
-9 5 -6 561.73 967.73 471.99 o
-13 6 6 1.01 28.05 472.18 <
13 6 -6 0.97 280.50 425.39 <
-12 6 6 75.34 9.35 411.40 <
12 6 -6 75.53 257.13 439.43 <
-11 6 6 264.34 154.28 453.49 <
11 6 -6 265.55 888.25 406.45 o
-10 6 6 1109.21 2019.61 391.64 o
10 6 -6 1109.59 1636.26 279.77 o
-9 6 6 306.48 518.93 359.91 <
9 6 -6 306.69 411.40 336.57 <
-8 6 6 29708.60 34020.10 516.31 o
8 6 -6 29714.00 32393.20 499.08 o
-7 6 6 1597.84 1355.76 392.94 o
7 6 -6 1597.91 2141.16 340.44 o
-6 6 6 408.44 102.85 378.72 <
6 6 -6 407.98 537.63 392.66 <
-5 6 6 3117.58 3113.57 397.39 o
5 6 -6 3119.58 3623.14 400.90 o
-4 6 6 3705.26 3454.84 374.63 o
4 6 -6 3705.75 4207.52 400.70 o
-3 6 6 344.61 79.48 299.24 <
3 6 -6 344.21 411.40 397.36 <
-2 6 6 64018.60 64309.60 442.35 o
2 6 -6 63998.40 70228.20 583.17 o
-1 6 6 7514.40 7882.09 273.05 o
1 6 -6 7513.55 8531.92 457.99 o
0 6 6 86.46 149.60 224.39 <
0 6 -6 86.29 776.05 425.19 <
1 6 6 2577.94 2187.91 225.47 o
-1 6 -6 2581.59 2206.61 430.64 o
2 6 6 3398.56 3553.02 237.82 o
-2 6 -6 3399.68 3006.04 458.87 o
3 6 6 1603.80 1683.01 233.60 o
-3 6 -6 1603.94 2346.86 485.35 o
4 6 6 22012.00 22468.20 304.44 o
-4 6 -6 22016.30 24754.20 573.49 o
5 6 6 4921.90 5203.30 250.93 o
-5 6 -6 4925.42 6386.08 424.73 o
6 6 6 21.11 -14.03 224.40 <
-6 6 -6 21.16 172.98 439.44 <
7 6 6 70.23 369.33 238.34 <
-7 6 -6 70.24 397.38 462.77 <
8 6 6 478.96 635.80 243.00 o
-8 6 -6 478.37 570.35 476.83 <
-12 7 6 4.95 -70.13 378.67 <
12 7 -6 4.95 327.25 294.46 <
-11 7 6 22.01 -121.55 388.02 <
11 7 -6 22.10 420.75 373.92 <
-10 7 6 322.31 682.55 415.95 <
10 7 -6 322.65 822.80 345.70 o
-9 7 6 46.35 687.23 350.40 <
9 7 -6 46.58 458.15 336.50 <
-8 7 6 509.27 444.13 425.45 <
8 7 -6 509.17 635.80 373.95 <
-7 7 6 24.38 -9.35 345.95 <
7 7 -6 24.40 168.30 336.59 <
-6 7 6 17.71 168.30 345.94 <
6 7 -6 17.49 46.75 299.20 <
-5 7 6 509.21 448.80 350.65 <
5 7 -6 509.98 285.18 289.93 <
-4 7 6 405.97 261.80 350.66 <
4 7 -6 404.84 542.30 289.79 <
-3 7 6 345.14 523.60 336.54 <
3 7 -6 345.19 116.88 275.87 <
-2 7 6 757.58 696.58 280.54 o
2 7 -6 757.74 607.75 420.82 <
-1 7 6 214.06 416.08 313.17 <
1 7 -6 214.67 158.95 439.46 <
0 7 6 392.09 364.65 224.41 <
0 7 -6 393.06 -453.48 448.72 <
1 7 6 740.29 897.60 233.60 o
-1 7 -6 739.80 495.55 346.06 <
2 7 6 159.99 -70.13 243.10 <
-2 7 -6 159.72 696.58 490.73 <
3 7 6 231.39 271.15 205.69 <
-3 7 -6 231.68 177.65 472.18 <
4 7 6 222.45 233.75 229.07 <
-4 7 -6 222.65 -158.95 411.39 <
5 7 6 174.39 238.43 219.71 <
-5 7 -6 174.13 575.03 467.40 <
6 7 6 323.18 299.20 238.43 <
-6 7 -6 322.46 930.33 420.47 o
7 7 6 263.74 345.95 229.05 <
-7 7 -6 263.80 528.28 345.86 <
-10 8 6 58.13 691.90 453.30 <
10 8 -6 58.34 383.35 430.05 <
-9 8 6 963.08 1341.73 411.10 o
9 8 -6 962.95 1309.01 378.39 o
-8 8 6 1352.75 1355.76 388.02 o
8 8 -6 1353.12 1617.56 383.07 o
-7 8 6 547.56 841.50 373.85 o
7 8 -6 548.02 663.85 345.90 <
-6 8 6 620.44 850.85 350.49 o
6 8 -6 621.18 710.60 322.53 o
-5 8 6 3638.02 4057.92 377.52 o
5 8 -6 3639.53 4315.05 306.15 o
-4 8 6 1025.65 752.68 341.46 o
4 8 -6 1025.36 1187.46 242.90 o
-3 8 6 1017.53 598.40 346.19 <
3 8 -6 1016.89 776.05 276.03 o
-2 8 6 2798.49 3183.69 316.91 o
2 8 -6 2796.93 3020.06 251.76 o
-1 8 6 636.60 589.05 303.90 <
1 8 -6 636.08 528.28 416.12 <
0 8 6 1277.35 1136.03 318.04 o
0 8 -6 1277.54 1346.41 341.21 o
1 8 6 2947.15 2720.86 243.79 o
-1 8 -6 2946.85 2276.74 501.12 o
2 8 6 1633.10 1813.91 214.66 o
-2 8 -6 1632.89 1650.28 509.56 o
3 8 6 136.18 261.80 243.07 <
-3 8 -6 135.79 0.00 490.88 <
4 8 6 1343.50 1687.68 256.56 o
-4 8 -6 1343.32 2071.04 513.56 o
5 8 6 207.44 364.65 243.05 <
-5 8 -6 207.24 163.63 434.78 <
6 8 6 512.52 579.70 219.68 o
-6 8 -6 512.65 584.38 425.40 <
-9 9 6 825.67 958.38 476.79 o
9 9 -6 825.81 935.01 481.47 <
-8 9 6 130.50 416.08 355.23 <
8 9 -6 130.38 -4.68 364.66 <
-7 9 6 1723.88 1556.78 369.52 o
7 9 -6 1724.05 1996.23 317.47 o
-6 9 6 941.17 1093.96 378.57 o
6 9 -6 941.95 1192.13 322.35 o
-5 9 6 110.66 416.08 345.88 <
5 9 -6 110.77 -130.90 299.19 <
-4 9 6 1039.01 995.78 374.03 o
4 9 -6 1039.28 1000.45 285.21 o
-3 9 6 2859.98 2346.86 351.61 o
3 9 -6 2860.91 2664.76 290.34 o
-2 9 6 78.42 65.45 336.60 <
2 9 -6 78.52 322.58 243.04 <
-1 9 6 2924.38 2515.16 332.80 o
1 9 -6 2924.41 2753.59 472.45 o
0 9 6 962.93 621.78 318.11 <
0 9 -6 962.39 766.70 519.01 <
1 9 6 117.45 561.00 252.26 o
-1 9 -6 117.58 1014.48 523.28 <
2 9 6 1051.99 1065.91 247.76 o
-2 9 -6 1051.49 1220.18 509.48 o
3 9 6 1708.37 1715.73 266.46 o
-3 9 -6 1707.41 1645.61 523.66 o
4 9 6 157.60 799.43 247.37 o
-4 9 -6 157.64 275.83 504.89 <
5 9 6 740.39 748.00 257.12 o
-5 9 -6 740.16 504.90 462.91 <
-6 10 6 159.26 392.70 350.57 <
6 10 -6 159.43 402.05 303.81 <
-5 10 6 209.13 631.13 350.47 <
5 10 -6 209.64 299.20 308.53 <
-4 10 6 1110.62 1799.88 363.86 o
4 10 -6 1110.33 1425.88 298.83 o
-3 10 6 86.99 518.93 383.24 <
3 10 -6 87.20 532.95 317.76 <
-2 10 6 2314.22 2164.54 383.58 o
2 10 -6 2313.65 2141.16 318.22 o
-1 10 6 1916.43 2061.69 387.83 o
1 10 -6 1916.33 2215.96 532.64 o
0 10 6 60.76 626.45 341.08 <
0 10 -6 60.55 378.68 481.48 <
1 10 6 306.15 710.60 256.89 o
-1 10 -6 306.78 603.08 551.58 <
2 10 6 945.01 677.88 229.31 o
-2 10 -6 944.52 1407.18 546.70 o
15 1 -7 175.73 224.40 233.74 <
14 1 -7 5966.51 5366.93 255.95 o
13 1 -7 1771.45 1439.91 215.69 o
12 1 -7 64.24 60.78 191.68 <
11 1 -7 1168.73 1262.26 238.30 o
-10 1 7 2530.49 2977.99 443.37 o
10 1 -7 2533.88 2482.44 261.93 o
-9 1 7 4299.80 4445.95 453.10 o
9 1 -7 4293.00 4221.55 271.45 o
-8 1 7 36716.00 38241.70 688.66 o
8 1 -7 36716.00 36455.80 533.05 o
-7 1 7 29429.40 31098.30 546.00 o
7 1 -7 29423.20 29901.40 563.66 o
-6 1 7 48.51 42.08 369.33 <
6 1 -7 49.11 144.93 359.97 <
-5 1 7 2384.55 2300.11 402.18 o
5 1 -7 2384.45 2117.79 388.43 o
-4 1 7 13183.50 12949.80 473.89 o
4 1 -7 13166.40 12561.80 430.24 o
-3 1 7 17824.80 18143.80 511.26 o
3 1 -7 17828.40 18092.30 455.38 o
-2 1 7 38440.50 37077.60 562.43 o
2 1 -7 38482.50 36152.00 522.77 o
-1 1 7 50399.50 48732.40 563.90 o
1 1 -7 50381.20 48952.20 554.04 o
0 1 7 3026.27 3020.06 261.82 o
0 1 -7 3031.58 2664.76 295.45 o
1 1 7 2001.98 2253.36 265.93 o
-1 1 -7 2002.64 2501.14 270.00 o
2 1 7 9230.50 8770.34 252.16 o
-2 1 -7 9229.46 8625.42 258.02 o
3 1 7 12481.50 13005.90 283.59 o
-3 1 -7 12485.30 12024.20 262.89 o
4 1 7 7553.65 7718.46 232.31 o
-4 1 -7 7552.86 8228.04 232.30 o
5 1 7 15972.30 14623.50 273.08 o
-5 1 -7 15978.70 15969.90 299.33 o
6 1 7 3761.47 3506.27 253.42 o
-6 1 -7 3762.92 3735.34 257.23 o
7 1 7 598.07 313.23 205.85 <
-7 1 -7 597.64 392.70 201.15 <
8 1 7 835.38 542.30 229.29 o
-8 1 -7 835.92 1154.73 256.78 o
9 1 7 1734.76 1692.36 280.57 o
-9 1 -7 1733.78 2033.64 354.87 o
10 1 7 224.48 710.60 233.45 o
-10 1 -7 224.71 341.28 373.98 <
15 2 -7 0.70 359.98 238.33 <
14 2 -7 294.63 509.58 224.29 o
13 2 -7 124.05 252.45 224.37 <
12 2 -7 20.65 18.70 257.13 <
-11 2 7 1218.81 1150.06 430.15 o
11 2 -7 1219.99 1131.36 257.23 o
-10 2 7 90.62 402.05 392.64 <
10 2 -7 91.24 163.63 271.14 <
-9 2 7 64.60 345.95 439.41 <
9 2 -7 64.18 -88.83 289.85 <
-8 2 7 3477.42 3464.19 472.20 o
8 2 -7 3477.75 3361.34 388.30 o
-7 2 7 441.59 500.23 416.06 <
7 2 -7 442.38 158.95 383.40 <
-6 2 7 714.84 939.68 486.10 <
6 2 -7 715.42 551.65 439.51 <
-5 2 7 6751.18 7087.34 559.89 o
5 2 -7 6740.40 7554.84 548.78 o
-4 2 7 16.01 158.95 420.74 <
4 2 -7 17.00 88.83 285.17 <
-3 2 7 692.98 794.75 331.86 o
3 2 -7 695.82 748.00 313.19 o
-2 2 7 12597.70 11813.80 417.49 o
2 2 -7 12589.20 12005.50 388.27 o
-1 2 7 231.80 -32.73 303.89 <
1 2 -7 235.48 163.63 294.54 <
0 2 7 1532.00 2047.66 242.04 o
0 2 -7 1534.20 1673.66 256.89 o
1 2 7 5912.16 5638.08 295.95 o
-1 2 -7 5910.10 5114.48 266.12 o
2 2 7 132.02 -252.45 243.05 <
-2 2 -7 132.41 70.13 224.41 <
3 2 7 430.55 495.55 196.31 o
-3 2 -7 431.77 532.95 219.66 o
4 2 7 2240.10 2169.21 243.27 o
-4 2 -7 2240.27 2421.66 247.32 o
5 2 7 15.66 -79.48 205.70 <
-5 2 -7 15.50 23.38 219.73 <
6 2 7 571.51 958.38 252.11 o
-6 2 -7 571.98 303.88 360.05 <
7 2 7 269.34 724.63 233.45 o
-7 2 -7 269.63 317.90 373.99 <
8 2 7 0.46 275.83 205.63 <
-8 2 -7 0.46 1332.38 340.35 o
9 2 7 149.88 392.70 186.89 o
-9 2 -7 149.92 -46.75 425.43 <
10 2 7 108.85 551.65 214.83 o
-10 2 -7 108.90 243.10 378.66 <
14 3 -7 5932.24 5628.73 282.15 o
13 3 -7 60.31 233.75 285.15 <
-12 3 7 181.12 163.63 444.13 <
12 3 -7 181.24 238.43 289.84 <
-11 3 7 163.96 42.08 411.41 <
11 3 -7 164.68 102.85 289.86 <
-10 3 7 489.67 635.80 416.02 <
10 3 -7 490.73 472.18 374.01 <
-9 3 7 1996.78 1210.83 449.49 o
9 3 -7 1995.45 1804.56 388.27 o
-8 3 7 37071.10 37722.80 644.47 o
8 3 -7 37061.80 37732.10 591.86 o
-7 3 7 2327.99 3001.36 466.43 o
7 3 -7 2323.92 2772.29 387.22 o
-6 3 7 595.27 603.08 448.80 <
6 3 -7 596.08 322.58 416.15 <
-5 3 7 31.30 458.15 420.67 <
5 3 -7 33.08 247.78 406.70 <
-4 3 7 528.02 518.93 327.26 <
4 3 -7 528.52 439.45 411.43 <
-3 3 7 13492.20 13796.00 347.45 o
3 3 -7 13484.70 12547.80 442.11 o
-2 3 7 42212.20 41271.10 444.86 o
2 3 -7 42224.20 39733.00 738.68 o
-1 3 7 5019.28 5268.75 307.43 o
1 3 -7 5023.80 5895.20 450.60 o
0 3 7 757.89 925.66 242.94 o
0 3 -7 762.11 537.63 374.10 <
1 3 7 119.85 205.70 266.46 <
-1 3 -7 121.74 444.13 364.57 <
2 3 7 823.29 369.33 257.37 <
-2 3 -7 823.56 710.60 341.34 o
3 3 7 14716.50 14824.50 250.76 o
-3 3 -7 14723.90 13707.20 434.29 o
4 3 7 10417.30 10313.10 221.03 o
-4 3 -7 10414.40 10051.30 418.44 o
5 3 7 1345.57 1271.61 173.12 o
-5 3 -7 1344.90 1393.16 350.58 o
6 3 7 1074.64 949.03 173.17 o
-6 3 -7 1074.67 1056.56 383.36 o
7 3 7 58.49 182.33 205.68 <
-7 3 -7 59.09 219.73 350.61 <
8 3 7 232.18 556.33 200.83 o
-8 3 -7 232.63 -187.00 285.16 <
9 3 7 2561.49 2678.79 224.03 o
-9 3 -7 2560.74 2314.14 425.80 o
10 3 7 432.40 705.93 242.92 o
-10 3 -7 432.30 467.50 472.17 <
14 4 -7 290.62 462.83 285.11 <
-13 4 7 423.01 710.60 514.16 <
13 4 -7 423.28 476.85 341.26 <
-12 4 7 6.59 -331.93 458.11 <
12 4 -7 6.58 84.15 392.70 <
-11 4 7 559.05 607.75 448.79 <
11 4 -7 558.91 388.03 383.40 <
-10 4 7 536.61 677.88 448.75 <
10 4 -7 537.25 696.58 341.20 o
-9 4 7 316.41 561.00 444.06 <
9 4 -7 316.67 551.65 397.30 <
-8 4 7 884.82 1748.46 419.95 o
8 4 -7 884.83 916.30 383.33 o
-7 4 7 3077.53 2510.49 463.71 o
7 4 -7 3076.88 2244.01 389.47 o
-6 4 7 8.68 -313.23 392.66 <
6 4 -7 8.79 -215.05 373.98 <
-5 4 7 2020.52 1916.76 378.82 o
5 4 -7 2022.40 1898.06 280.73 o
-4 4 7 2437.96 2416.99 336.64 o
4 4 -7 2434.16 2286.09 308.85 o
-3 4 7 734.69 654.50 243.16 o
3 4 -7 735.34 719.95 416.08 <
-2 4 7 363.98 411.40 224.38 <
2 4 -7 363.62 411.40 280.48 <
-1 4 7 2656.68 2819.04 228.55 o
1 4 -7 2662.64 2781.64 420.55 o
0 4 7 318.12 191.68 201.07 <
0 4 -7 319.19 -18.70 388.05 <
1 4 7 784.77 920.98 200.87 o
-1 4 -7 785.99 1224.86 350.27 o
2 4 7 1789.53 1266.93 206.68 o
-2 4 -7 1791.51 1238.88 285.91 o
3 4 7 830.00 949.03 210.24 o
-3 4 -7 829.23 579.70 350.75 <
4 4 7 10.42 229.08 200.98 <
-4 4 -7 10.57 -294.53 383.31 <
5 4 7 631.52 799.43 219.57 o
-5 4 -7 630.86 785.40 392.62 <
6 4 7 148.85 201.03 182.31 <
-6 4 -7 148.56 336.60 392.67 <
7 4 7 100.52 495.55 205.51 o
-7 4 -7 100.45 -271.15 373.96 <
8 4 7 249.59 425.43 182.23 o
-8 4 -7 249.48 303.88 434.77 <
9 4 7 203.93 430.10 233.66 <
-9 4 -7 203.79 308.55 462.81 <
-13 5 7 1886.40 1533.41 435.13 o
13 5 -7 1886.13 1528.73 430.47 o
-12 5 7 73.33 420.75 490.82 <
12 5 -7 73.15 313.23 416.04 <
-11 5 7 2124.75 2229.99 486.08 o
11 5 -7 2124.48 2136.49 313.20 o
-10 5 7 2959.12 2814.36 411.67 o
10 5 -7 2957.78 2603.99 290.74 o
-9 5 7 1142.57 780.73 458.34 <
9 5 -7 1143.35 860.20 416.25 o
-8 5 7 7211.67 8302.84 486.15 o
8 5 -7 7204.72 8270.12 457.94 o
-7 5 7 20830.60 20920.70 527.33 o
7 5 -7 20826.90 20930.10 480.33 o
-6 5 7 970.39 1145.38 392.57 o
6 5 -7 969.03 1201.48 378.49 o
-5 5 7 5599.24 4890.07 460.26 o
5 5 -7 5606.20 5151.88 310.63 o
-4 5 7 14445.20 15394.90 387.65 o
4 5 -7 14454.10 13688.50 482.79 o
-3 5 7 1797.61 1968.18 233.38 o
3 5 -7 1797.25 1991.56 270.78 o
-2 5 7 6033.57 6227.13 255.89 o
2 5 -7 6032.85 5488.48 325.12 o
-1 5 7 37861.90 39256.20 322.68 o
1 5 -7 37877.10 35661.10 571.89 o
0 5 7 7154.64 6956.43 249.27 o
0 5 -7 7159.79 6437.51 433.08 o
1 5 7 4010.15 3716.64 244.33 o
-1 5 -7 4010.25 3852.22 444.50 o
2 5 7 8885.55 9892.35 256.67 o
-2 5 -7 8881.03 8644.12 468.68 o
3 5 7 774.30 883.58 205.58 o
-3 5 -7 774.29 874.23 289.77 o
4 5 7 1294.22 1220.18 215.16 o
-4 5 -7 1294.47 1150.06 430.21 o
5 5 7 10323.90 10336.50 252.31 o
-5 5 -7 10321.00 10074.70 468.93 o
6 5 7 4888.09 5189.28 241.41 o
-6 5 -7 4886.33 5287.45 452.26 o
7 5 7 694.15 612.43 201.10 o
-7 5 -7 693.96 832.15 444.06 <
8 5 7 1087.55 1075.26 196.37 o
-8 5 -7 1086.12 1458.61 331.53 o
-13 6 7 213.96 472.18 486.15 <
13 6 -7 214.03 392.70 378.64 <
-12 6 7 75.93 523.60 406.62 <
12 6 -7 75.92 130.90 308.55 <
-11 6 7 1949.44 2435.69 476.23 o
11 6 -7 1949.13 2206.61 415.73 o
-10 6 7 38.03 514.25 430.00 <
10 6 -7 37.96 406.73 397.31 <
-9 6 7 62.54 84.15 402.05 <
9 6 -7 62.24 374.00 378.62 <
-8 6 7 5504.89 5465.10 336.77 o
8 6 -7 5503.99 4497.37 433.11 o
-7 6 7 635.73 836.83 387.92 o
7 6 -7 635.03 374.00 374.09 <
-6 6 7 574.47 635.80 271.11 o
6 6 -7 575.32 224.40 378.76 <
-5 6 7 7312.32 7975.59 393.91 o
5 6 -7 7309.09 7433.29 434.21 o
-4 6 7 183.95 350.63 280.45 <
4 6 -7 183.64 -23.38 397.38 <
-3 6 7 304.48 205.70 271.17 <
3 6 -7 303.58 280.50 402.06 <
-2 6 7 11045.20 11285.50 296.79 o
2 6 -7 11053.70 10934.90 384.26 o
-1 6 7 554.99 144.93 219.87 <
1 6 -7 555.47 504.90 425.44 <
0 6 7 1924.11 1809.23 210.65 o
0 6 -7 1920.83 2099.09 448.59 o
1 6 7 4986.34 5553.93 249.21 o
-1 6 -7 4987.90 4773.20 346.75 o
2 6 7 241.13 257.13 215.05 <
-2 6 -7 240.87 977.08 415.73 o
3 6 7 454.07 303.88 243.16 <
-3 6 -7 454.27 1103.31 439.10 o
4 6 7 3656.49 3669.89 252.40 o
-4 6 -7 3655.78 3188.37 449.73 o
5 6 7 72.69 98.18 191.67 <
-5 6 -7 72.80 149.60 388.02 <
6 6 7 923.01 1047.21 214.90 o
-6 6 -7 923.77 1140.71 392.54 o
7 6 7 471.50 953.71 233.32 o
-7 6 -7 471.45 589.05 458.11 <
8 6 7 8.43 252.45 238.38 <
-8 6 -7 8.46 345.95 462.78 <
-12 7 7 151.90 149.60 411.40 <
12 7 -7 152.23 341.28 425.39 <
-11 7 7 98.69 677.88 397.19 <
11 7 -7 99.78 467.50 369.23 <
-10 7 7 644.06 1037.86 415.85 o
10 7 -7 644.12 878.90 392.57 o
-9 7 7 417.46 -144.93 402.07 <
9 7 -7 416.42 902.28 341.00 o
-8 7 7 9110.74 9681.97 445.57 o
8 7 -7 9104.99 10027.90 429.24 o
-7 7 7 6.52 411.40 336.51 <
7 7 -7 6.38 322.58 350.57 <
-6 7 7 346.93 327.25 308.56 <
6 7 -7 347.38 294.53 266.49 <
-5 7 7 153.04 -154.28 275.81 <
5 7 -7 154.53 -392.70 308.45 <
-4 7 7 2392.03 2608.66 289.35 o
4 7 -7 2390.65 2847.09 274.64 o
-3 7 7 3594.34 3749.37 284.64 o
3 7 -7 3595.34 4034.55 391.54 o
-2 7 7 10642.80 10766.60 283.93 o
2 7 -7 10643.00 11846.50 469.09 o
-1 7 7 129.71 -23.38 229.08 <
1 7 -7 129.32 663.85 425.26 <
0 7 7 356.40 257.13 219.76 <
0 7 -7 358.33 289.85 313.24 <
1 7 7 109.89 182.33 229.06 <
-1 7 -7 111.12 -341.28 458.10 <
2 7 7 1751.74 2351.54 241.68 o
-2 7 -7 1754.23 1079.93 416.64 o
3 7 7 4540.38 4857.35 246.15 o
-3 7 -7 4539.55 4936.82 485.15 o
4 7 7 2551.38 2618.01 238.23 o
-4 7 -7 2550.53 2468.41 476.97 o
5 7 7 231.52 163.63 210.39 <
-5 7 -7 230.83 383.35 458.12 <
6 7 7 111.32 341.28 238.36 <
-6 7 -7 112.24 724.63 457.97 <
7 7 7 17.91 546.98 247.57 o
-7 7 -7 18.14 631.13 472.03 <
-10 8 7 167.45 182.33 448.80 <
10 8 -7 167.46 331.93 392.67 <
-9 8 7 65.06 322.58 402.01 <
9 8 -7 64.82 37.40 359.98 <
-8 8 7 128.09 561.00 359.84 <
8 8 -7 128.11 -210.38 388.00 <
-7 8 7 1406.56 1556.78 401.90 o
7 8 -7 1406.20 977.08 397.70 o
-6 8 7 396.65 355.30 317.91 <
6 8 -7 397.26 561.00 387.97 <
-5 8 7 421.78 757.35 294.33 o
5 8 -7 422.34 406.73 369.33 <
-4 8 7 1083.00 1453.93 275.35 o
4 8 -7 1081.94 1776.51 377.92 o
-3 8 7 139.80 -98.18 247.77 <
3 8 -7 139.65 135.58 383.35 <
-2 8 7 27.95 -28.05 219.73 <
2 8 -7 27.82 -233.75 359.95 <
-1 8 7 1579.17 1827.93 209.82 o
1 8 -7 1579.82 1977.53 424.97 o
0 8 7 317.49 416.08 233.71 <
0 8 -7 317.15 869.55 448.58 <
1 8 7 203.82 486.20 238.30 o
-1 8 -7 203.52 673.20 453.33 <
2 8 7 863.33 631.13 233.94 o
-2 8 -7 863.96 1028.51 472.09 o
3 8 7 60.20 -18.70 229.08 <
-3 8 -7 60.04 878.90 425.12 o
4 8 7 89.95 490.88 228.91 o
-4 8 -7 89.86 336.60 416.04 <
5 8 7 243.76 392.70 219.66 <
-5 8 -7 243.66 537.63 430.02 <
-9 9 7 24.47 645.15 439.29 <
9 9 -7 24.40 920.98 443.79 o
-8 9 7 434.30 897.60 369.08 o
8 9 -7 434.47 589.05 364.59 <
-7 9 7 2038.36 1893.38 350.84 o
7 9 -7 2038.10 1524.06 411.97 o
-6 9 7 1352.32 1192.13 402.18 o
6 9 -7 1352.79 2113.11 405.80 o
-5 9 7 1695.86 1192.13 388.50 o
5 9 -7 1695.33 1626.91 388.11 o
-4 9 7 766.25 635.80 360.04 <
4 9 -7 766.47 953.71 411.29 o
-3 9 7 164.38 233.75 252.44 <
3 9 -7 164.01 864.88 420.47 o
-2 9 7 332.96 458.15 252.40 <
2 9 -7 333.08 462.83 425.39 <
-1 9 7 3191.26 3342.64 256.61 o
1 9 -7 3191.09 2538.54 333.37 o
0 9 7 3360.28 3922.34 269.08 o
0 9 -7 3360.64 3286.54 509.71 o
1 9 7 992.80 1019.16 238.40 o
-1 9 -7 993.20 1215.51 509.45 o
2 9 7 489.14 743.33 247.60 o
-2 9 -7 488.88 612.43 448.76 <
3 9 7 116.25 257.13 252.42 <
-3 9 -7 116.04 383.35 453.43 <
4 9 7 109.10 233.75 219.70 <
-4 9 -7 109.11 556.33 369.20 <
-6 10 7 36.13 294.53 378.64 <
6 10 -7 36.38 9.35 448.80 <
-5 10 7 489.05 906.95 392.48 o
5 10 -7 488.43 813.45 490.75 <
-4 10 7 27.46 364.65 359.91 <
4 10 -7 27.51 327.25 336.55 <
-3 10 7 247.32 504.90 285.08 <
3 10 -7 247.02 663.85 462.70 <
-2 10 7 1067.19 1407.18 303.49 o
2 10 -7 1067.49 1402.51 476.61 o
-1 10 7 68.41 738.65 284.85 o
1 10 -7 68.39 -266.48 462.80 <
0 10 7 165.75 453.48 261.70 <
0 10 -7 165.84 144.93 462.83 <
1 10 7 302.94 607.75 238.25 o
-1 10 -7 302.86 1285.63 541.84 o
15 0 -8 149.15 392.70 327.19 <
14 0 -8 1367.80 1636.26 345.63 o
13 0 -8 16146.90 16199.00 401.49 o
12 0 -8 6660.27 6203.76 343.54 o
11 0 -8 4965.20 4721.77 342.19 o
-10 0 8 22916.20 24226.00 708.32 o
10 0 -8 22920.80 21617.30 579.07 o
-9 0 8 39.64 182.33 458.14 <
9 0 -8 38.66 18.70 355.30 <
-8 0 8 411.08 294.53 402.08 <
8 0 -8 410.80 850.85 448.62 <
-7 0 8 95392.00 93781.00 1202.93 o
7 0 -8 95398.60 94234.40 1161.60 o
-6 0 8 61412.60 60663.10 1040.27 o
6 0 -8 61429.40 62093.70 994.17 o
-5 0 8 21623.90 21846.40 704.10 o
5 0 -8 21630.60 21603.30 724.85 o
-4 0 8 77692.70 78287.90 1077.84 o
4 0 -8 77658.10 76230.90 1020.13 o
-3 0 8 1568.88 2473.09 517.92 o
3 0 -8 1575.01 2398.29 447.76 o
-2 0 8 3890.25 4329.07 532.03 o
2 0 -8 3898.12 4011.17 462.57 o
-1 0 8 103958.00 105268.00 934.01 o
1 0 -8 103948.00 101518.00 986.02 o
0 0 8 99042.40 95253.60 929.71 o
0 0 -8 99069.40 98119.40 893.25 o
1 0 8 13778.20 12426.20 431.64 o
-1 0 -8 13778.00 12552.40 371.56 o
2 0 8 27677.40 26269.00 457.29 o
-2 0 -8 27673.90 28031.40 494.88 o
3 0 8 806.00 668.53 252.55 o
-3 0 -8 800.00 804.10 336.60 o
4 0 8 3314.79 3286.54 364.72 o
-4 0 -8 3312.90 3618.47 340.44 o
5 0 8 11485.50 10607.60 330.39 o
-5 0 -8 11487.30 12038.20 374.05 o
6 0 8 20206.50 20677.60 428.81 o
-6 0 -8 20200.40 20130.70 435.64 o
7 0 8 1131.75 1416.53 364.38 o
-7 0 -8 1132.87 1346.41 359.77 o
8 0 8 2355.47 2449.71 289.64 o
-8 0 -8 2354.50 1575.48 384.35 o
9 0 8 37.67 411.40 401.98 <
-9 0 -8 37.27 168.30 388.02 <
15 1 -8 50.11 472.18 242.95 <
14 1 -8 746.35 818.13 214.98 o
13 1 -8 898.77 897.60 219.73 o
12 1 -8 305.46 257.13 201.04 <
-11 1 8 2027.47 2445.04 429.51 o
11 1 -8 2024.76 2169.21 256.81 o
-10 1 8 3162.02 3314.59 453.18 o
10 1 -8 3161.27 2959.29 281.08 o
-9 1 8 1102.68 874.23 430.24 o
9 1 -8 1101.86 967.73 266.61 o
-8 1 8 5368.52 5497.83 364.14 o
8 1 -8 5366.36 5301.48 397.61 o
-7 1 8 9037.72 9742.75 454.23 o
7 1 -8 9033.30 8826.44 449.89 o
-6 1 8 5707.65 5404.33 417.15 o
6 1 -8 5709.15 5460.43 384.31 o
-5 1 8 7208.04 6423.48 433.34 o
5 1 -8 7217.16 6540.36 381.89 o
-4 1 8 18314.80 17998.80 498.62 o
4 1 -8 18304.40 18045.60 433.00 o
-3 1 8 11320.40 11149.90 449.94 o
3 1 -8 11326.20 10495.40 384.93 o
-2 1 8 6420.02 6208.43 323.67 o
2 1 -8 6428.23 6208.43 291.12 o
-1 1 8 17991.30 17138.60 398.11 o
1 1 -8 17981.80 16722.60 366.68 o
0 1 8 14673.50 14394.40 353.69 o
0 1 -8 14671.40 14029.70 307.24 o
1 1 8 1765.00 1762.48 238.43 o
-1 1 -8 1766.83 2042.99 256.57 o
2 1 8 9568.08 9336.02 287.21 o
-2 1 -8 9567.12 9261.22 283.21 o
3 1 8 9787.24 9761.45 248.05 o
-3 1 -8 9784.36 10285.10 261.36 o
4 1 8 501.32 537.63 252.43 o
-4 1 -8 501.54 673.20 247.66 o
5 1 8 2768.25 2650.74 187.45 o
-5 1 -8 2769.29 2898.51 252.06 o
6 1 8 4770.87 4413.22 244.87 o
-6 1 -8 4769.53 5053.70 208.58 o
7 1 8 28.49 116.88 247.77 <
-7 1 -8 28.43 509.58 252.27 o
8 1 8 807.57 892.93 243.02 o
-8 1 -8 807.65 649.83 252.57 o
9 1 8 1549.77 1753.13 261.45 o
-9 1 -8 1549.50 1439.91 313.36 o
15 2 -8 852.35 883.58 243.07 o
14 2 -8 1772.72 1841.96 228.93 o
13 2 -8 194.84 266.48 229.06 <
-12 2 8 605.89 892.93 462.70 <
12 2 -8 605.77 631.13 280.49 o
-11 2 8 1417.15 1079.93 463.06 o
11 2 -8 1416.93 1481.98 280.41 o
-10 2 8 2149.70 2220.64 411.30 o
10 2 -8 2150.11 1870.01 323.03 o
-9 2 8 12853.10 13370.60 538.93 o
9 2 -8 12854.30 13314.50 468.74 o
-8 2 8 5816.34 6755.41 506.40 o
8 2 -8 5816.15 5638.08 458.74 o
-7 2 8 519.12 289.85 467.55 <
7 2 -8 520.07 645.15 434.73 <
-6 2 8 1866.37 1813.91 504.95 o
6 2 -8 1869.51 1865.33 486.21 o
-5 2 8 1823.74 1860.66 430.06 o
5 2 -8 1822.12 1785.86 360.02 o
-4 2 8 2729.63 2706.84 392.74 o
4 2 -8 2732.31 2730.21 350.63 o
-3 2 8 40760.60 39751.70 552.82 o
3 2 -8 40745.30 39284.20 547.98 o
-2 2 8 3532.89 3197.72 318.83 o
2 2 -8 3525.68 3347.32 299.74 o
-1 2 8 1243.31 878.90 290.19 o
1 2 -8 1239.01 804.10 266.89 o
0 2 8 4849.40 4590.87 304.94 o
0 2 -8 4846.72 4296.35 301.39 o
1 2 8 34.66 439.45 219.58 <
-1 2 -8 34.62 144.93 252.44 <
2 2 8 1178.38 916.30 215.38 o
-2 2 -8 1181.16 1271.61 205.55 o
3 2 8 18057.40 18499.10 311.03 o
-3 2 -8 18057.50 18185.80 287.70 o
4 2 8 442.15 523.60 210.32 o
-4 2 -8 443.26 261.80 215.12 <
5 2 8 361.47 659.18 247.60 o
-5 2 -8 361.58 243.10 173.03 <
6 2 8 1822.22 1851.31 243.04 o
-6 2 -8 1821.08 1912.08 186.76 o
7 2 8 278.85 271.15 233.75 <
-7 2 -8 278.63 598.40 336.48 <
8 2 8 11.18 434.78 205.54 o
-8 2 -8 11.15 243.10 388.00 <
9 2 8 2306.29 2449.71 228.68 o
-9 2 -8 2307.44 2314.14 336.59 o
14 3 -8 101.37 168.30 266.47 <
-13 3 8 451.91 439.45 472.18 <
13 3 -8 452.14 439.45 327.26 <
-12 3 8 343.77 341.28 392.70 <
12 3 -8 343.55 359.98 369.32 <
-11 3 8 670.52 509.58 504.95 <
11 3 -8 672.01 289.85 406.83 <
-10 3 8 2750.37 2664.76 467.63 o
10 3 -8 2751.35 2912.54 368.99 o
-9 3 8 169.68 654.50 434.63 <
9 3 -8 169.11 -9.35 388.03 <
-8 3 8 372.86 116.88 434.81 <
8 3 -8 372.97 -154.28 392.71 <
-7 3 8 7142.13 6236.48 498.73 o
7 3 -8 7145.91 6806.83 454.86 o
-6 3 8 232.23 687.23 462.69 <
6 3 -8 233.29 196.35 439.46 <
-5 3 8 1142.41 1178.11 514.23 o
5 3 -8 1137.97 1500.68 443.83 o
-4 3 8 9943.95 10378.60 347.23 o
4 3 -8 9947.61 9967.15 490.77 o
-3 3 8 291.15 434.78 257.07 <
3 3 -8 291.11 107.53 308.58 <
-2 3 8 303.30 -28.05 275.85 <
2 3 -8 302.30 201.03 425.44 <
-1 3 8 11685.90 12024.20 333.39 o
1 3 -8 11696.80 12758.10 330.83 o
0 3 8 593.77 701.25 266.40 o
0 3 -8 595.51 804.10 266.32 o
1 3 8 730.48 860.20 214.92 o
-1 3 -8 730.94 771.38 345.93 o
2 3 8 7169.04 6657.23 279.18 o
-2 3 -8 7173.87 6764.76 376.01 o
3 3 8 1877.68 1855.98 229.12 o
-3 3 -8 1878.30 1930.78 373.93 o
4 3 8 106.67 177.65 205.69 <
-4 3 -8 106.89 177.65 369.32 <
5 3 8 4332.41 4230.90 215.59 o
-5 3 -8 4331.12 4385.17 364.48 o
6 3 8 1225.45 920.98 187.44 o
-6 3 -8 1226.06 771.38 374.30 o
7 3 8 39.11 215.05 210.34 <
-7 3 -8 39.23 448.80 387.94 <
8 3 8 703.37 836.83 210.24 o
-8 3 -8 703.14 1182.78 401.73 o
9 3 8 515.69 949.03 191.19 o
-9 3 -8 515.91 579.70 434.76 <
14 4 -8 819.40 1463.28 434.28 o
-13 4 8 6170.61 5867.15 524.52 o
13 4 -8 6167.46 4941.50 448.05 o
-12 4 8 5447.72 5927.93 461.23 o
12 4 -8 5449.30 4768.52 399.65 o
-11 4 8 2378.11 2141.16 463.13 o
11 4 -8 2376.65 2276.74 360.15 o
-10 4 8 6637.42 6610.48 505.00 o
10 4 -8 6640.59 5965.33 446.63 o
-9 4 8 303.09 425.43 448.77 <
9 4 -8 303.08 645.15 415.96 <
-8 4 8 453.03 780.73 458.02 <
8 4 -8 454.70 878.90 392.49 o
-7 4 8 33176.40 29994.90 593.19 o
7 4 -8 33188.80 30111.80 622.22 o
-6 4 8 41098.40 38653.10 661.88 o
6 4 -8 41105.40 39962.10 623.14 o
-5 4 8 7923.09 7858.71 439.76 o
5 4 -8 7916.91 7559.51 408.52 o
-4 4 8 20598.50 20041.80 427.83 o
4 4 -8 20600.00 18845.00 495.55 o
-3 4 8 2230.99 2159.86 247.94 o
3 4 -8 2220.03 1683.01 300.09 o
-2 4 8 544.74 481.53 215.09 o
2 4 -8 547.59 289.85 294.61 <
-1 4 8 32758.20 31635.90 372.62 o
1 4 -8 32752.20 29050.60 607.69 o
0 4 8 60033.70 58213.40 479.82 o
0 4 -8 60019.70 53374.70 783.09 o
1 4 8 4102.89 3805.47 211.84 o
-1 4 -8 4103.62 2921.89 381.43 o
2 4 8 7157.29 6451.53 234.51 o
-2 4 -8 7154.62 6381.41 391.54 o
3 4 8 1327.10 752.68 178.46 o
-3 4 -8 1327.57 724.63 346.38 o
4 4 8 857.80 701.25 233.89 o
-4 4 -8 856.10 752.68 369.39 o
5 4 8 3471.13 2828.39 217.46 o
-5 4 -8 3472.05 3230.44 281.26 o
6 4 8 14206.30 13861.40 262.08 o
-6 4 -8 14211.10 13216.30 470.53 o
7 4 8 227.01 542.30 210.20 o
-7 4 -8 226.84 411.40 345.90 <
8 4 8 654.55 892.93 228.85 o
-8 4 -8 654.62 860.20 397.27 o
-13 5 8 247.34 556.33 359.87 <
13 5 -8 247.23 794.75 443.93 <
-12 5 8 366.94 1168.76 453.05 o
12 5 -8 366.96 -65.45 388.05 <
-11 5 8 273.79 378.68 430.08 <
11 5 -8 273.40 476.85 411.35 <
-10 5 8 467.85 233.75 448.85 <
10 5 -8 467.81 715.28 359.86 <
-9 5 8 243.00 158.95 444.14 <
9 5 -8 243.00 500.23 401.98 <
-8 5 8 1752.49 2272.06 410.70 o
8 5 -8 1754.59 1898.06 392.52 o
-7 5 8 1203.63 1196.81 383.36 o
7 5 -8 1203.47 1500.68 425.17 o
-6 5 8 3216.31 3375.37 420.42 o
6 5 -8 3218.69 3164.99 383.47 o
-5 5 8 904.94 813.45 425.48 <
5 5 -8 905.38 766.70 392.78 <
-4 5 8 2336.39 2225.31 290.08 o
4 5 -8 2337.36 1846.63 412.04 o
-3 5 8 2951.37 2833.06 243.47 o
3 5 -8 2950.91 2529.19 328.17 o
-2 5 8 2287.41 2000.91 234.43 o
2 5 -8 2282.30 2262.71 397.41 o
-1 5 8 1475.96 1472.63 229.08 o
1 5 -8 1474.61 1435.23 425.46 o
0 5 8 5286.88 5446.40 246.85 o
0 5 -8 5283.08 4810.60 403.61 o
1 5 8 170.08 327.25 219.67 <
-1 5 -8 169.22 116.88 359.98 <
2 5 8 1743.00 1547.43 224.78 o
-2 5 -8 1740.79 1697.03 397.43 o
3 5 8 2413.41 3015.39 227.10 o
-3 5 -8 2413.28 2431.01 402.02 o
4 5 8 170.64 411.40 219.63 <
-4 5 -8 171.24 771.38 392.47 <
5 5 8 362.74 308.55 215.07 <
-5 5 -8 362.99 411.40 392.69 <
6 5 8 1229.34 1458.61 209.97 o
-6 5 -8 1229.53 738.65 397.67 <
7 5 8 60.36 383.35 210.26 <
-7 5 -8 60.19 350.63 448.76 <
8 5 8 299.05 575.03 238.28 o
-8 5 -8 298.93 439.45 331.88 <
-12 6 8 63.14 836.83 425.15 <
12 6 -8 62.98 402.05 308.47 <
-11 6 8 147.51 187.00 317.90 <
11 6 -8 147.26 121.55 411.40 <
-10 6 8 160.24 -257.13 327.21 <
10 6 -8 160.18 -528.28 411.27 <
-9 6 8 5765.48 5142.53 432.16 o
9 6 -8 5765.87 5179.93 446.01 o
-8 6 8 2814.48 2655.41 435.04 o
8 6 -8 2817.52 2636.71 369.68 o
-7 6 8 1286.46 1631.58 368.95 o
7 6 -8 1287.59 1047.21 392.89 o
-6 6 8 147.85 -158.95 388.02 <
6 6 -8 148.51 -70.13 383.35 <
-5 6 8 138.58 238.43 341.26 <
5 6 -8 137.45 229.08 383.34 <
-4 6 8 51.60 135.58 289.84 <
4 6 -8 51.91 589.05 397.23 <
-3 6 8 15915.40 17208.80 333.71 o
3 6 -8 15918.70 14684.20 473.44 o
-2 6 8 1230.88 1117.33 252.59 o
2 6 -8 1231.33 743.33 411.69 <
-1 6 8 1780.57 1472.63 224.98 o
1 6 -8 1778.65 1402.51 416.45 o
0 6 8 308.73 565.68 191.50 o
0 6 -8 309.05 196.35 299.23 <
1 6 8 78.93 247.78 200.98 <
-1 6 -8 78.64 140.25 397.37 <
2 6 8 81.29 -172.98 233.73 <
-2 6 -8 81.44 -233.75 397.35 <
3 6 8 8236.45 8531.92 254.53 o
-3 6 -8 8232.91 7358.49 443.49 o
4 6 8 44.28 219.73 219.69 <
-4 6 -8 44.17 425.43 378.60 <
5 6 8 367.44 589.05 224.26 o
-5 6 -8 367.54 -102.85 444.14 <
6 6 8 255.25 715.28 228.77 o
-6 6 -8 254.86 696.58 439.30 <
7 6 8 8.34 243.10 247.74 <
-7 6 -8 8.35 350.63 327.19 <
-11 7 8 10.44 280.50 406.69 <
11 7 -8 10.34 359.98 430.05 <
-10 7 8 252.91 -388.03 378.60 <
10 7 -8 252.68 967.73 411.06 o
-9 7 8 500.72 60.78 397.44 <
9 7 -8 500.46 902.28 261.49 o
-8 7 8 494.60 1238.88 392.20 o
8 7 -8 495.22 467.50 383.36 <
-7 7 8 811.12 991.10 378.56 o
7 7 -8 811.57 635.80 346.05 <
-6 7 8 2568.85 2435.69 477.04 o
6 7 -8 2570.55 2571.26 383.35 o
-5 7 8 98.52 158.95 299.19 <
5 7 -8 98.55 -84.15 383.35 <
-4 7 8 1676.04 1944.81 275.34 o
4 7 -8 1675.79 1079.93 365.21 o
-3 7 8 1045.83 691.90 262.09 o
3 7 -8 1046.22 490.88 257.52 <
-2 7 8 859.70 308.55 220.05 <
2 7 -8 857.31 649.83 374.11 <
-1 7 8 3032.20 3590.42 245.72 o
1 7 -8 3032.18 3146.29 434.56 o
0 7 8 1395.70 1397.83 224.40 o
0 7 -8 1394.31 1126.68 416.29 o
1 7 8 190.67 -18.70 224.41 <
-1 7 -8 191.00 392.70 420.71 <
2 7 8 1170.85 1079.93 233.87 o
-2 7 -8 1170.78 906.95 397.55 o
3 7 8 232.87 397.38 214.98 <
-3 7 -8 232.95 584.38 378.56 <
4 7 8 456.38 341.28 247.82 <
-4 7 -8 456.33 172.98 467.55 <
5 7 8 1131.52 1309.01 242.86 o
-5 7 -8 1131.06 1159.41 486.18 o
6 7 8 74.00 504.90 238.25 o
-6 7 -8 74.07 341.28 467.46 <
-10 8 8 143.56 392.70 444.08 <
10 8 -8 144.09 388.03 378.62 <
-9 8 8 290.10 252.45 425.43 <
9 8 -8 289.05 430.10 294.48 <
-8 8 8 301.14 776.05 345.73 o
8 8 -8 301.27 327.25 388.02 <
-7 8 8 1187.25 1243.56 402.01 o
7 8 -8 1186.75 1425.88 401.84 o
-6 8 8 10061.20 11556.70 443.65 o
6 8 -8 10061.50 11902.60 436.28 o
-5 8 8 507.99 729.30 308.43 o
5 8 -8 507.23 514.25 359.97 <
-4 8 8 292.59 98.18 266.51 <
4 8 -8 293.09 444.13 285.12 <
-3 8 8 1063.02 1453.93 251.90 o
3 8 -8 1062.36 1921.43 377.69 o
-2 8 8 154.61 233.75 243.08 <
2 8 -8 154.86 196.35 402.05 <
-1 8 8 832.86 673.20 233.88 o
1 8 -8 831.99 612.43 383.46 <
0 8 8 12563.80 14174.70 268.88 o
0 8 -8 12565.30 15165.80 421.21 o
1 8 8 38.95 37.40 238.43 <
-1 8 -8 38.85 523.60 429.99 <
2 8 8 88.42 504.90 238.26 o
-2 8 -8 88.67 691.90 448.63 <
3 8 8 362.78 1000.45 233.18 o
-3 8 -8 362.44 500.23 481.49 <
4 8 8 63.38 556.33 261.60 o
-4 8 -8 63.33 668.53 486.05 <
5 8 8 56.25 271.15 252.41 <
-5 8 -8 56.24 383.35 341.21 <
-8 9 8 155.54 733.98 439.26 <
8 9 -8 155.55 682.55 425.26 <
-7 9 8 49.52 -32.73 388.03 <
7 9 -8 49.47 -289.85 345.90 <
-6 9 8 113.14 196.35 331.92 <
6 9 -8 113.32 579.70 369.18 <
-5 9 8 4.15 392.70 322.49 <
5 9 -8 4.15 603.08 397.21 <
-4 9 8 196.25 158.95 289.86 <
4 9 -8 196.20 472.18 308.46 <
-3 9 8 9.63 84.15 271.15 <
3 9 -8 9.53 392.70 285.08 <
-2 9 8 188.75 327.25 280.46 <
2 9 -8 188.55 238.43 327.24 <
-1 9 8 122.38 187.00 247.76 <
1 9 -8 122.65 766.70 453.27 <
0 9 8 108.99 107.53 247.78 <
0 9 -8 108.95 1047.21 467.11 o
1 9 8 35.17 411.40 242.98 <
-1 9 -8 35.28 626.45 476.71 <
2 9 8 250.93 60.78 243.13 <
-2 9 -8 250.95 154.28 359.99 <
3 9 8 5.84 388.03 224.28 <
-3 9 -8 5.81 677.88 500.07 <
-5 10 8 37.40 196.35 299.18 <
5 10 -8 37.15 154.28 336.59 <
-4 10 8 38.46 364.65 280.42 <
4 10 -8 38.49 687.23 481.36 <
-3 10 8 1850.06 2099.09 322.16 o
3 10 -8 1850.43 1533.41 360.36 o
-2 10 8 202.53 500.23 299.10 <
2 10 -8 202.69 659.18 429.96 <
-1 10 8 417.51 818.13 284.92 o
1 10 -8 417.74 621.78 430.03 <
15 1 -9 377.16 696.58 238.21 o
14 1 -9 63.26 116.88 247.77 <
13 1 -9 1675.00 1753.13 233.60 o
12 1 -9 10618.10 9616.52 326.15 o
-11 1 9 618.51 1122.01 495.29 o
11 1 -9 616.55 631.13 266.47 o
-10 1 9 540.58 640.48 504.87 <
10 1 -9 542.25 570.35 299.19 <
-9 1 9 346.34 364.65 341.27 <
9 1 -9 348.11 317.90 345.96 <
-8 1 9 503.08 518.93 322.57 <
8 1 -9 501.18 603.08 317.85 <
-7 1 9 2113.14 2206.61 350.47 o
7 1 -9 2113.82 2127.14 355.28 o
-6 1 9 54841.70 53463.60 710.99 o
6 1 -9 54829.80 54623.00 635.89 o
-5 1 9 881.49 392.70 364.85 <
5 1 -9 885.93 439.45 308.78 <
-4 1 9 1325.22 1519.38 350.41 o
4 1 -9 1329.25 1337.06 303.87 o
-3 1 9 284.59 645.15 336.45 <
3 1 -9 287.17 537.63 289.75 <
-2 1 9 2361.12 2244.01 304.11 o
2 1 -9 2362.18 2678.79 293.79 o
-1 1 9 298.23 476.85 289.78 <
1 1 -9 298.19 56.10 266.51 <
0 1 9 44110.90 42996.20 454.72 o
0 1 -9 44104.20 43697.40 450.14 o
1 1 9 102.15 51.43 257.13 <
-1 1 -9 101.98 37.40 210.38 <
2 1 9 1248.27 1262.26 243.08 o
-2 1 -9 1246.61 1262.26 215.03 o
3 1 9 201.92 205.70 233.75 <
-3 1 -9 202.46 163.63 224.41 <
4 1 9 908.34 878.90 247.80 o
-4 1 -9 908.58 1084.61 247.58 o
5 1 9 869.81 617.10 196.59 o
-5 1 -9 870.62 635.80 205.92 o
6 1 9 6480.20 6199.08 254.31 o
-6 1 -9 6480.31 5867.15 256.35 o
7 1 9 289.85 252.45 252.46 <
-7 1 -9 290.19 257.13 247.79 <
8 1 9 403.55 299.20 275.86 <
-8 1 -9 403.58 261.80 252.50 <
9 1 9 158.69 402.05 313.16 <
-9 1 -9 158.70 897.60 392.38 o
15 2 -9 22.97 294.53 271.10 <
14 2 -9 28.55 107.53 271.14 <
13 2 -9 44.75 196.35 303.86 <
-12 2 9 299.67 682.55 472.06 <
12 2 -9 300.39 490.88 317.83 <
-11 2 9 2.74 23.38 420.75 <
11 2 -9 2.75 74.80 327.25 <
-10 2 9 155.57 -121.55 453.47 <
10 2 -9 154.99 369.33 369.28 <
-9 2 9 481.33 668.53 453.41 <
9 2 -9 482.75 635.80 411.34 <
-8 2 9 127.87 -23.38 448.80 <
8 2 -9 127.83 486.20 411.32 <
-7 2 9 182.57 219.73 467.50 <
7 2 -9 182.83 9.35 430.11 <
-6 2 9 788.80 603.08 434.85 <
6 2 -9 787.82 935.01 373.91 o
-5 2 9 106.07 140.25 359.97 <
5 2 -9 106.59 37.40 285.18 <
-4 2 9 624.91 486.20 360.03 <
4 2 -9 626.90 317.90 313.34 <
-3 2 9 337.26 677.88 285.00 o
3 2 -9 334.95 430.10 299.17 <
-2 2 9 392.24 289.85 289.88 <
2 2 -9 392.05 313.23 247.80 <
-1 2 9 234.94 462.83 280.42 <
1 2 -9 235.58 149.60 219.74 <
0 2 9 326.88 359.98 271.14 <
0 2 -9 326.88 247.78 252.47 <
1 2 9 158.15 210.38 247.76 <
-1 2 -9 157.85 -9.35 224.41 <
2 2 9 23.48 -93.50 238.42 <
-2 2 -9 23.75 -116.88 238.41 <
3 2 9 441.91 378.68 261.83 <
-3 2 -9 442.30 663.85 256.99 o
4 2 9 170.55 149.60 210.38 <
-4 2 -9 170.10 191.68 215.05 <
5 2 9 58.16 112.20 172.97 <
-5 2 -9 58.21 383.35 205.59 <
6 2 9 89.62 163.63 219.71 <
-6 2 -9 89.72 289.85 243.05 <
7 2 9 57.10 88.83 238.42 <
-7 2 -9 56.98 266.48 383.32 <
8 2 9 4.36 336.60 224.31 <
-8 2 -9 4.38 -74.80 299.20 <
14 3 -9 83.33 261.80 439.43 <
-13 3 9 278.96 967.73 476.57 o
13 3 -9 279.14 289.85 350.62 <
-12 3 9 12820.20 11729.60 571.86 o
12 3 -9 12822.70 11594.10 448.31 o
-11 3 9 58.27 476.85 415.99 <
11 3 -9 58.28 509.58 392.59 <
-10 3 9 227.95 -79.48 439.46 <
10 3 -9 228.05 523.60 411.32 <
-9 3 9 438.19 392.70 439.46 <
9 3 -9 437.79 719.95 369.20 <
-8 3 9 277.44 149.60 392.72 <
8 3 -9 276.93 102.85 402.07 <
-7 3 9 10.51 168.30 397.36 <
7 3 -9 10.66 -317.90 294.46 <
-6 3 9 63052.90 61944.10 822.16 o
6 3 -9 63039.90 61738.40 785.33 o
-5 3 9 2157.49 1813.91 365.14 o
5 3 -9 2158.23 2220.64 448.72 o
-4 3 9 542.75 509.58 322.59 <
4 3 -9 542.75 434.78 439.48 <
-3 3 9 1911.44 2575.94 297.80 o
3 3 -9 1912.21 2346.86 298.35 o
-2 3 9 1029.31 963.05 261.87 o
2 3 -9 1032.82 1131.36 266.37 o
-1 3 9 2238.88 2253.36 243.07 o
1 3 -9 2236.53 2057.01 271.52 o
0 3 9 52089.20 51944.20 476.42 o
0 3 -9 52095.30 53828.20 422.11 o
1 3 9 4285.98 4202.85 252.82 o
-1 3 -9 4287.04 4590.87 279.20 o
2 3 9 75.53 51.43 266.48 <
-2 3 -9 75.91 299.20 266.43 <
3 3 9 410.12 537.63 247.71 o
-3 3 -9 409.79 719.95 350.48 o
4 3 9 489.27 350.63 243.16 <
-4 3 -9 487.03 112.20 299.28 <
5 3 9 1298.42 1280.96 201.06 o
-5 3 -9 1298.74 869.55 369.64 o
6 3 9 7832.58 7246.29 229.53 o
-6 3 -9 7833.16 8410.37 422.44 o
7 3 9 1632.20 1706.38 158.74 o
-7 3 -9 1632.51 1958.83 411.01 o
8 3 9 166.25 271.15 210.35 <
-8 3 -9 166.47 832.15 434.53 <
-14 4 9 55.13 836.83 415.79 o
14 4 -9 54.99 149.60 364.64 <
-13 4 9 963.55 1276.28 500.03 o
13 4 -9 964.17 1617.56 410.81 o
-12 4 9 4.49 130.90 486.20 <
12 4 -9 4.55 149.60 364.64 <
-11 4 9 988.33 1524.06 467.09 o
11 4 -9 988.59 1388.48 397.04 o
-10 4 9 2464.33 2332.84 477.03 o
10 4 -9 2464.40 1767.16 370.33 o
-9 4 9 158.80 -177.65 467.49 <
9 4 -9 158.46 523.60 378.57 <
-8 4 9 1089.76 1140.71 416.04 o
8 4 -9 1089.28 1084.61 425.43 o
-7 4 9 6307.06 6072.85 393.68 o
7 4 -9 6302.25 5226.68 350.55 o
-6 4 9 289.91 626.45 429.99 <
6 4 -9 290.66 453.48 458.11 <
-5 4 9 4731.51 5058.38 429.10 o
5 4 -9 4731.38 3838.19 339.52 o
-4 4 9 4888.80 5049.02 293.80 o
4 4 -9 4885.50 4366.47 431.56 o
-3 4 9 1333.80 1028.51 234.14 o
3 4 -9 1335.32 1444.58 303.74 o
-2 4 9 3229.28 3122.92 257.47 o
2 4 -9 3228.29 3052.79 425.77 o
-1 4 9 6249.43 6367.38 228.21 o
1 4 -9 6251.45 6002.73 449.70 o
0 4 9 1496.05 1280.96 220.08 o
0 4 -9 1494.83 1449.26 289.91 o
1 4 9 3964.20 4109.35 228.39 o
-1 4 -9 3964.24 3356.67 403.48 o
2 4 9 1133.46 981.76 196.56 o
-2 4 -9 1132.60 1047.21 369.39 o
3 4 9 534.13 289.85 196.47 <
-3 4 -9 533.46 504.90 355.31 <
4 4 9 1588.41 1673.66 214.88 o
-4 4 -9 1588.94 1584.83 331.93 o
5 4 9 638.24 504.90 196.45 o
-5 4 -9 637.88 1084.61 369.02 o
6 4 9 301.68 523.60 219.60 o
-6 4 -9 301.88 84.15 341.30 <
7 4 9 643.84 687.23 233.72 o
-7 4 -9 644.13 780.73 299.11 o
8 4 9 12.09 266.48 205.64 <
-8 4 -9 12.07 -4.68 317.90 <
-13 5 9 1400.73 1472.63 458.09 o
13 5 -9 1400.30 1477.31 397.30 o
-12 5 9 2259.70 2304.79 467.44 o
12 5 -9 2259.29 1916.76 458.56 o
-11 5 9 497.40 743.33 495.46 <
11 5 -9 497.34 715.28 430.02 <
-10 5 9 986.28 757.35 336.75 o
10 5 -9 985.89 888.25 360.04 o
-9 5 9 2576.97 2248.69 477.29 o
9 5 -9 2579.56 2388.94 425.72 o
-8 5 9 1054.17 743.33 444.29 <
8 5 -9 1054.07 944.35 374.08 o
-7 5 9 2768.62 3295.89 466.56 o
7 5 -9 2763.14 2421.66 388.62 o
-6 5 9 9601.74 8821.77 490.07 o
6 5 -9 9598.47 9233.17 436.87 o
-5 5 9 1405.26 1047.21 388.31 o
5 5 -9 1406.24 603.08 407.18 <
-4 5 9 2129.01 2075.71 289.95 o
4 5 -9 2128.07 1519.38 402.75 o
-3 5 9 4553.82 4558.15 257.11 o
3 5 -9 4556.45 4777.87 410.73 o
-2 5 9 3533.32 3244.47 253.47 o
2 5 -9 3529.11 3314.59 411.87 o
-1 5 9 268.02 275.83 229.07 <
1 5 -9 269.06 112.20 397.39 <
0 5 9 7511.81 7208.89 245.52 o
0 5 -9 7510.72 7554.84 443.93 o
1 5 9 807.75 804.10 205.71 o
-1 5 -9 807.77 696.58 266.56 o
2 5 9 1361.51 1640.93 195.76 o
-2 5 -9 1361.80 1168.76 271.39 o
3 5 9 2305.10 2356.21 200.87 o
-3 5 -9 2308.71 1636.26 295.66 o
4 5 9 2282.68 2739.56 213.58 o
-4 5 -9 2284.69 2244.01 392.76 o
5 5 9 96.35 280.50 210.32 <
-5 5 -9 96.47 98.18 378.68 <
6 5 9 1323.69 1285.63 233.81 o
-6 5 -9 1322.01 1009.81 402.28 o
7 5 9 47.64 345.95 228.99 <
-7 5 -9 47.53 112.20 299.20 <
-12 6 9 559.26 930.33 434.59 o
12 6 -9 559.02 813.45 387.90 o
-11 6 9 89.50 444.13 331.83 <
11 6 -9 89.63 518.93 308.41 <
-10 6 9 172.51 607.75 420.62 <
10 6 -9 172.93 822.80 378.40 o
-9 6 9 679.98 906.95 415.96 o
9 6 -9 679.83 850.85 373.90 o
-8 6 9 189.37 481.53 401.98 <
8 6 -9 189.03 322.58 345.92 <
-7 6 9 9.34 28.05 289.85 <
7 6 -9 9.44 219.73 402.03 <
-6 6 9 1898.32 2061.69 425.22 o
6 6 -9 1896.95 2042.99 369.12 o
-5 6 9 453.36 327.25 327.29 <
5 6 -9 453.66 -252.45 383.34 <
-4 6 9 241.39 266.48 280.49 <
4 6 -9 240.75 219.73 350.63 <
-3 6 9 1767.98 1921.43 256.83 o
3 6 -9 1768.94 1865.33 392.58 o
-2 6 9 453.87 182.33 201.12 <
2 6 -9 453.39 23.38 383.40 <
-1 6 9 166.69 462.83 205.56 o
1 6 -9 167.68 981.76 378.27 o
0 6 9 1054.50 1056.56 205.70 o
0 6 -9 1056.32 682.55 369.55 <
1 6 9 216.71 210.38 196.35 <
-1 6 -9 217.00 986.43 382.96 o
2 6 9 25.22 303.88 214.98 <
-2 6 -9 25.31 -98.18 374.00 <
3 6 9 613.21 930.33 214.73 o
-3 6 -9 613.23 397.38 397.45 <
4 6 9 109.23 -154.28 219.71 <
-4 6 -9 109.32 88.83 280.50 <
5 6 9 209.49 523.60 238.28 o
-5 6 -9 209.11 448.80 425.37 <
6 6 9 79.60 663.85 200.66 o
-6 6 -9 79.38 556.33 383.22 <
-11 7 9 205.01 397.38 416.04 <
11 7 -9 205.26 916.30 425.12 o
-10 7 9 268.96 308.55 467.50 <
10 7 -9 269.09 -140.25 434.78 <
-9 7 9 9.40 551.65 397.24 <
9 7 -9 9.76 420.75 345.86 <
-8 7 9 1049.98 1304.33 411.20 o
8 7 -9 1050.08 481.53 280.86 <
-7 7 9 102.16 -196.35 383.33 <
7 7 -9 102.73 144.93 341.27 <
-6 7 9 11232.60 10313.10 440.73 o
6 7 -9 11234.20 9999.87 447.18 o
-5 7 9 3049.22 3244.47 340.79 o
5 7 -9 3048.21 2949.94 388.23 o
-4 7 9 120.30 135.58 275.82 <
4 7 -9 120.35 144.93 364.65 <
-3 7 9 49.58 84.15 224.40 <
3 7 -9 51.02 130.90 257.12 <
-2 7 9 2639.25 2608.66 252.54 o
2 7 -9 2638.76 2374.91 402.48 o
-1 7 9 426.19 219.73 219.80 <
1 7 -9 426.10 537.63 406.69 <
0 7 9 9050.90 10158.80 260.27 o
0 7 -9 9051.08 8326.22 373.78 o
1 7 9 4546.49 5619.38 251.20 o
-1 7 -9 4545.97 3366.02 404.98 o
2 7 9 33.65 252.45 224.35 <
-2 7 -9 33.78 -313.23 411.36 <
3 7 9 15.87 177.65 233.73 <
-3 7 -9 15.43 224.40 416.06 <
4 7 9 1039.95 1650.28 242.13 o
-4 7 -9 1039.28 1397.83 331.56 o
5 7 9 213.95 476.85 219.60 o
-5 7 -9 213.81 663.85 443.99 <
-10 8 9 590.36 762.03 341.18 o
10 8 -9 590.22 855.53 434.65 <
-9 8 9 105.83 813.45 434.53 <
9 8 -9 105.86 626.45 373.83 <
-8 8 9 91.76 673.20 364.45 <
8 8 -9 91.56 163.63 402.05 <
-7 8 9 1924.29 2085.06 420.55 o
7 8 -9 1923.85 1603.53 397.74 o
-6 8 9 110.92 238.43 448.79 <
6 8 -9 110.92 472.18 387.94 <
-5 8 9 1157.27 1187.46 322.55 o
5 8 -9 1156.98 1192.13 369.30 o
-4 8 9 1098.58 1234.21 299.06 o
4 8 -9 1098.70 1220.18 303.75 o
-3 8 9 464.14 168.30 271.23 <
3 8 -9 463.68 252.45 289.91 <
-2 8 9 468.31 504.90 243.08 o
2 8 -9 467.84 691.90 425.34 <
-1 8 9 2016.83 2122.46 238.18 o
1 8 -9 2018.79 1327.71 444.77 o
0 8 9 500.08 565.68 243.06 o
0 8 -9 499.68 518.93 406.72 <
1 8 9 910.24 1065.91 242.93 o
-1 8 -9 910.42 1402.51 439.08 o
2 8 9 182.03 570.35 238.24 o
-2 8 -9 182.24 444.13 439.39 <
3 8 9 291.92 247.78 233.76 <
-3 8 -9 291.78 121.55 313.25 <
-8 9 9 239.43 229.08 397.38 <
8 9 -9 239.44 738.65 369.12 <
-7 9 9 333.45 790.08 364.44 o
7 9 -9 333.44 130.90 369.36 <
-6 9 9 1256.51 1107.98 378.80 o
6 9 -9 1255.78 701.25 360.34 <
-5 9 9 306.18 556.33 313.13 <
5 9 -9 306.48 374.00 364.63 <
-4 9 9 232.96 402.05 280.45 <
4 9 -9 233.10 514.25 425.35 <
-3 9 9 866.45 1505.36 284.40 o
3 9 -9 867.66 1047.21 439.35 o
-2 9 9 880.62 1477.31 275.09 o
2 9 -9 880.55 1566.13 434.21 o
-1 9 9 26.24 532.95 266.29 <
1 9 -9 26.11 892.93 462.53 <
0 9 9 1161.91 1164.08 238.42 o
0 9 -9 1160.55 1379.13 429.92 o
1 9 9 225.12 317.90 247.75 <
-1 9 -9 225.11 317.90 425.41 <
15 0 -10 1270.81 1168.76 364.74 o
14 0 -10 297.47 355.30 327.24 <
13 0 -10 489.09 144.93 313.30 <
12 0 -10 4465.50 5020.98 357.98 o
-11 0 10 13.24 308.55 430.06 <
11 0 -10 13.07 74.80 486.20 <
-10 0 10 408.29 294.53 575.04 <
10 0 -10 407.75 196.35 430.14 <
-9 0 10 4418.15 4329.07 570.53 o
9 0 -10 4419.27 3941.04 585.27 o
-8 0 10 3387.07 2842.41 533.78 o
8 0 -10 3388.06 3244.47 505.15 o
-7 0 10 4516.03 4254.27 524.18 o
7 0 -10 4515.69 4100.00 519.83 o
-6 0 10 11725.70 11238.80 549.68 o
6 0 -10 11720.20 11467.80 525.09 o
-5 0 10 450.81 537.63 523.58 <
5 0 -10 451.21 163.63 378.73 <
-4 0 10 1415.84 963.05 514.51 <
4 0 -10 1420.50 1566.13 397.23 o
-3 0 10 4000.15 4090.65 514.06 o
3 0 -10 4009.23 3725.99 435.44 o
-2 0 10 3980.38 4132.72 476.50 o
2 0 -10 3978.19 2664.76 423.33 o
-1 0 10 7819.87 7250.96 479.21 o
1 0 -10 7818.97 7564.19 445.30 o
0 0 10 5665.41 5848.45 429.45 o
0 0 -10 5665.84 5731.58 411.16 o
1 0 10 858.62 579.70 276.01 o
-1 0 -10 857.40 645.15 378.78 <
2 0 10 3154.04 3164.99 388.00 o
-2 0 -10 3156.26 2758.26 384.15 o
3 0 10 1013.02 696.58 332.13 o
-3 0 -10 1014.14 1136.03 355.20 o
4 0 10 1106.86 916.30 350.77 o
-4 0 -10 1108.30 1093.96 257.14 o
5 0 10 2191.59 2384.26 345.61 o
-5 0 -10 2192.47 2197.26 285.17 o
6 0 10 877.91 1430.56 364.15 o
-6 0 -10 877.26 1075.26 275.63 o
7 0 10 154.40 472.18 378.60 <
-7 0 -10 154.34 187.00 266.47 <
8 0 10 1299.64 1402.51 355.20 o
-8 0 -10 1298.54 1131.36 355.45 o
15 1 -10 87.67 341.28 238.35 <
14 1 -10 483.00 771.38 266.28 o
13 1 -10 774.41 677.88 289.91 o
-12 1 10 429.06 546.98 472.14 <
12 1 -10 428.76 617.10 285.08 o
-11 1 10 1822.22 1528.73 463.10 o
11 1 -10 1823.58 2010.26 298.88 o
-10 1 10 2152.17 2178.56 504.87 o
10 1 -10 2152.97 1949.48 364.95 o
-9 1 10 1379.86 1360.43 369.35 o
9 1 -10 1379.81 1439.91 378.62 o
-8 1 10 6288.05 6498.28 405.84 o
8 1 -10 6289.04 6063.50 374.99 o
-7 1 10 2403.97 2435.69 373.95 o
7 1 -10 2402.53 2328.16 313.38 o
-6 1 10 2902.96 2781.64 360.23 o
6 1 -10 2906.82 2982.66 322.39 o
-5 1 10 11183.50 12243.90 422.21 o
5 1 -10 11178.10 11514.60 366.55 o
-4 1 10 2516.79 2819.04 350.00 o
4 1 -10 2514.85 2538.54 299.15 o
-3 1 10 2541.29 2515.16 336.65 o
3 1 -10 2546.51 2618.01 294.36 o
-2 1 10 14737.00 14441.10 390.97 o
2 1 -10 14733.00 14530.00 329.66 o
-1 1 10 900.95 804.10 289.93 o
1 1 -10 900.19 981.76 257.05 o
0 1 10 1985.51 2164.54 270.78 o
0 1 -10 1987.37 2150.51 238.04 o
1 1 10 12539.10 11612.80 336.13 o
-1 1 -10 12540.00 12594.50 322.01 o
2 1 10 242.96 472.18 275.74 <
-2 1 -10 242.43 378.68 271.11 <
3 1 10 795.81 682.55 247.86 o
-3 1 -10 795.72 1000.45 261.61 o
4 1 10 6383.60 6058.83 268.47 o
-4 1 -10 6385.04 7180.84 246.57 o
5 1 10 21.50 -32.73 233.75 <
-5 1 -10 21.47 191.68 243.08 <
6 1 10 298.88 -56.10 247.80 <
-6 1 -10 298.64 261.80 233.76 <
7 1 10 2185.75 2510.49 246.93 o
-7 1 -10 2186.35 2870.46 288.18 o
8 1 10 36.83 598.40 284.96 o
-8 1 -10 36.82 467.50 275.69 <
14 2 -10 1135.51 1014.48 364.74 o
-13 2 10 608.54 930.33 490.73 <
13 2 -10 608.67 612.43 359.98 <
-12 2 10 14507.00 17077.90 603.63 o
12 2 -10 14503.70 15179.80 513.71 o
-11 2 10 11086.60 11397.70 535.88 o
11 2 -10 11084.80 10766.60 562.65 o
-10 2 10 9.21 9.35 439.45 <
10 2 -10 9.27 116.88 383.35 <
-9 2 10 405.38 149.60 444.16 <
9 2 -10 408.15 509.58 430.07 <
-8 2 10 12616.60 11393.00 544.74 o
8 2 -10 12619.00 11897.90 620.87 o
-7 2 10 6784.09 6713.33 472.45 o
7 2 -10 6782.91 6315.96 436.63 o
-6 2 10 35111.80 34183.80 626.21 o
6 2 -10 35110.00 34052.90 582.57 o
-5 2 10 49069.10 49957.30 636.28 o
5 2 -10 49086.20 50111.60 560.61 o
-4 2 10 176.18 116.88 350.63 <
4 2 -10 177.25 116.88 285.18 <
-3 2 10 379.11 612.43 303.77 o
3 2 -10 378.26 434.78 275.80 <
-2 2 10 22822.80 23622.90 384.63 o
2 2 -10 22823.10 23361.10 365.00 o
-1 2 10 10992.20 10761.90 333.93 o
1 2 -10 10997.50 10818.00 324.19 o
0 2 10 12761.50 12650.60 323.74 o
0 2 -10 12761.70 12594.50 310.37 o
1 2 10 32958.80 32192.20 391.34 o
-1 2 -10 32959.30 32150.10 387.81 o
2 2 10 1371.01 1215.51 243.32 o
-2 2 -10 1375.20 1210.83 219.98 o
3 2 10 112.71 107.53 266.48 <
-3 2 -10 112.01 51.43 261.81 <
4 2 10 4869.74 4389.85 264.02 o
-4 2 -10 4867.42 4394.52 273.26 o
5 2 10 3506.20 3146.29 272.30 o
-5 2 -10 3503.78 3669.89 261.19 o
6 2 10 758.56 1182.78 275.40 o
-6 2 -10 759.20 897.60 257.00 o
7 2 10 3125.93 2706.84 286.29 o
-7 2 -10 3126.31 3440.82 434.13 o
8 2 10 543.11 818.13 238.20 o
-8 2 -10 543.50 1103.31 448.50 o
-14 3 10 447.88 724.63 490.78 <
14 3 -10 447.41 701.25 434.68 <
-13 3 10 606.01 874.23 495.44 <
13 3 -10 605.80 902.28 415.92 o
-12 3 10 14.60 378.68 500.18 <
12 3 -10 14.64 243.10 411.38 <
-11 3 10 2939.55 3202.39 495.11 o
11 3 -10 2937.17 2580.61 412.02 o
-10 3 10 661.30 1051.88 476.65 o
10 3 -10 660.77 888.25 415.96 o
-9 3 10 161.93 462.83 444.06 <
9 3 -10 162.10 -350.63 392.64 <
-8 3 10 6538.11 6152.33 473.54 o
8 3 -10 6538.63 6890.98 447.38 o
-7 3 10 2274.85 2959.29 457.06 o
7 3 -10 2276.62 2328.16 439.38 o
-6 3 10 152.79 172.98 402.05 <
6 3 -10 152.82 598.40 425.30 <
-5 3 10 15457.90 15792.20 469.21 o
5 3 -10 15467.80 15502.40 429.77 o
-4 3 10 786.41 425.43 280.69 <
4 3 -10 787.21 462.83 313.38 <
-3 3 10 702.74 299.20 308.70 <
3 3 -10 699.65 275.83 280.67 <
-2 3 10 16517.40 16404.70 366.01 o
2 3 -10 16517.00 16573.00 349.92 o
-1 3 10 596.05 603.08 280.50 o
1 3 -10 596.11 341.28 275.93 <
0 3 10 397.30 9.35 229.14 <
0 3 -10 396.07 285.18 266.51 <
1 3 10 10635.80 11552.00 299.51 o
-1 3 -10 10632.40 10701.10 317.29 o
2 3 10 197.12 149.60 257.13 <
-2 3 -10 197.47 215.05 187.00 <
3 3 10 333.34 243.10 238.45 <
-3 3 -10 332.93 350.63 327.25 <
4 3 10 4718.00 5596.00 276.04 o
-4 3 -10 4717.00 5469.78 342.91 o
5 3 10 87.62 65.45 187.00 <
-5 3 -10 87.51 327.25 331.88 <
6 3 10 93.28 345.95 191.58 <
-6 3 -10 93.45 154.28 355.30 <
7 3 10 1292.10 1374.46 242.98 o
-7 3 -10 1291.67 1538.08 448.59 o
-14 4 10 315.86 416.08 467.48 <
14 4 -10 315.96 196.35 341.30 <
-13 4 10 185.92 327.25 430.08 <
13 4 -10 185.64 715.28 415.89 <
-12 4 10 3642.73 3562.37 514.40 o
12 4 -10 3641.68 3417.44 435.26 o
-11 4 10 5.09 -4.68 462.83 <
11 4 -10 5.09 509.58 401.94 <
-10 4 10 206.48 168.30 448.81 <
10 4 -10 207.38 392.70 402.01 <
-9 4 10 1235.83 1051.88 467.62 o
9 4 -10 1235.75 1337.06 420.67 o
-8 4 10 2632.62 2622.69 476.87 o
8 4 -10 2631.96 2753.59 448.61 o
-7 4 10 2402.78 2543.21 462.62 o
7 4 -10 2399.94 2487.11 434.65 o
-6 4 10 10335.60 9742.75 494.07 o
6 4 -10 10337.60 9219.15 510.54 o
-5 4 10 13.26 158.95 336.59 <
5 4 -10 13.04 -378.68 458.10 <
-4 4 10 720.38 710.60 266.48 o
4 4 -10 720.69 565.68 439.51 <
-3 4 10 559.56 462.83 238.48 <
3 4 -10 561.07 289.85 420.82 <
-2 4 10 3388.77 3431.47 228.91 o
2 4 -10 3391.85 4104.67 320.29 o
-1 4 10 5449.65 5352.90 220.36 o
1 4 -10 5454.46 4749.82 436.93 o
0 4 10 5627.63 5998.06 245.42 o
0 4 -10 5623.79 4908.77 423.08 o
1 4 10 193.92 257.13 201.01 <
-1 4 -10 192.50 -303.88 341.22 <
2 4 10 1149.86 1257.58 200.85 o
-2 4 -10 1151.45 958.38 243.32 o
3 4 10 219.46 168.30 215.06 <
-3 4 -10 220.68 705.93 359.78 <
4 4 10 816.62 1117.33 228.72 o
-4 4 -10 816.51 546.98 280.67 <
5 4 10 1917.39 2599.31 227.18 o
-5 4 -10 1916.19 2117.79 397.10 o
6 4 10 744.18 906.95 228.91 o
-6 4 -10 743.96 1182.78 411.11 o
7 4 10 102.03 130.90 229.07 <
-7 4 -10 101.77 -37.40 439.45 <
-13 5 10 33.39 402.05 476.80 <
13 5 -10 33.33 191.68 467.49 <
-12 5 10 239.33 355.30 514.23 <
12 5 -10 239.55 51.43 374.02 <
-11 5 10 97.33 -18.70 509.58 <
11 5 -10 97.41 93.50 444.13 <
-10 5 10 573.67 191.68 448.88 <
10 5 -10 573.70 640.48 373.97 <
-9 5 10 756.95 1103.31 317.61 o
9 5 -10 757.11 738.65 378.69 <
-8 5 10 155.42 -327.25 392.65 <
8 5 -10 154.89 565.68 415.96 <
-7 5 10 256.09 359.98 453.46 <
7 5 -10 255.42 322.58 383.34 <
-6 5 10 2487.48 2323.49 505.11 o
6 5 -10 2488.55 2767.61 467.08 o
-5 5 10 87.98 -4.68 345.95 <
5 5 -10 87.64 537.63 420.64 <
-4 5 10 1075.23 1182.78 271.03 o
4 5 -10 1076.21 1874.68 410.57 o
-3 5 10 2108.26 2215.96 275.60 o
3 5 -10 2107.00 1949.48 430.30 o
-2 5 10 567.27 617.10 229.04 o
2 5 -10 568.60 1257.58 401.58 o
-1 5 10 150.13 261.80 224.37 <
1 5 -10 150.32 869.55 369.00 o
0 5 10 2816.47 3197.72 223.01 o
0 5 -10 2817.00 2618.01 346.36 o
1 5 10 734.39 682.55 224.44 o
-1 5 -10 735.41 785.40 247.74 o
2 5 10 234.74 126.23 219.75 <
-2 5 -10 234.88 187.00 355.31 <
3 5 10 742.65 719.95 224.42 o
-3 5 -10 743.28 635.80 378.73 <
4 5 10 472.80 561.00 205.64 o
-4 5 -10 472.55 663.85 336.51 <
5 5 10 63.03 472.18 224.24 o
-5 5 -10 63.00 -28.05 341.28 <
6 5 10 515.74 603.08 210.31 o
-6 5 -10 515.78 925.66 434.58 o
-12 6 10 2229.80 2113.11 439.61 o
12 6 -10 2228.87 1425.88 440.28 o
-11 6 10 3691.76 3473.54 439.92 o
11 6 -10 3691.44 3927.02 443.58 o
-10 6 10 381.28 715.28 401.92 <
10 6 -10 381.91 542.30 425.38 <
-9 6 10 872.97 836.83 439.47 <
9 6 -10 873.85 1178.11 420.54 o
-8 6 10 3663.82 3856.89 453.05 o
8 6 -10 3663.43 3983.12 419.97 o
-7 6 10 389.61 308.55 360.00 <
7 6 -10 388.67 603.08 289.75 o
-6 6 10 3723.79 2992.01 403.62 o
6 6 -10 3723.42 3758.72 425.34 o
-5 6 10 14873.50 16292.50 459.33 o
5 6 -10 14869.50 13057.30 449.71 o
-4 6 10 2094.76 2692.81 279.08 o
4 6 -10 2096.60 1888.71 355.61 o
-3 6 10 1316.26 1421.21 233.59 o
3 6 -10 1317.99 1360.43 402.01 o
-2 6 10 5997.64 5970.00 252.63 o
2 6 -10 5995.02 5563.28 417.65 o
-1 6 10 735.43 645.15 210.45 o
1 6 -10 733.72 303.88 346.10 <
0 6 10 1075.02 579.70 224.84 o
0 6 -10 1073.34 1126.68 345.91 o
1 6 10 9566.43 10070.00 256.67 o
-1 6 -10 9567.77 8069.09 456.37 o
2 6 10 2660.18 3108.89 232.23 o
-2 6 -10 2661.89 2197.26 365.45 o
3 6 10 632.43 841.50 252.28 o
-3 6 -10 632.79 752.68 416.02 <
4 6 10 1302.01 1005.13 243.46 o
-4 6 -10 1302.54 397.38 411.81 <
5 6 10 232.68 331.93 238.39 <
-5 6 -10 231.95 794.75 434.57 <
-11 7 10 519.05 1084.61 471.89 o
11 7 -10 519.17 804.10 439.33 <
-10 7 10 3.52 766.70 453.25 <
10 7 -10 3.55 140.25 383.34 <
-9 7 10 63.11 46.75 430.10 <
9 7 -10 62.97 158.95 425.42 <
-8 7 10 511.57 355.30 341.33 <
8 7 -10 511.92 285.18 383.41 <
-7 7 10 304.49 434.78 350.59 <
7 7 -10 304.36 392.70 383.33 <
-6 7 10 213.47 561.00 378.57 <
6 7 -10 213.82 79.48 280.52 <
-5 7 10 1593.19 1528.73 360.05 o
5 7 -10 1593.81 1084.61 393.14 o
-4 7 10 79.99 140.25 266.47 <
4 7 -10 80.38 -130.90 392.69 <
-3 7 10 284.01 224.40 261.82 <
3 7 -10 283.85 430.10 359.93 <
-2 7 10 1174.36 958.38 234.01 o
2 7 -10 1173.31 1309.01 430.00 o
-1 7 10 60.56 168.30 215.03 <
1 7 -10 60.26 23.38 397.38 <
0 7 10 379.34 481.53 233.70 o
0 7 -10 379.60 462.83 411.38 <
1 7 10 806.54 1131.36 238.05 o
-1 7 -10 806.15 888.25 369.28 o
2 7 10 200.73 715.28 233.43 o
-2 7 -10 200.76 621.78 420.62 <
3 7 10 173.49 378.68 214.97 <
-3 7 -10 173.25 289.85 397.36 <
4 7 10 426.64 724.63 224.18 o
-4 7 -10 426.92 1187.46 401.58 o
-9 8 10 17.44 542.30 317.74 <
9 8 -10 17.58 593.73 429.96 <
-8 8 10 753.93 1019.16 439.30 o
8 8 -10 754.04 715.28 420.77 <
-7 8 10 601.03 635.80 411.39 <
7 8 -10 600.60 556.33 402.07 <
-6 8 10 3093.71 2258.04 305.73 o
6 8 -10 3093.34 3688.59 400.67 o
-5 8 10 9.95 397.38 327.17 <
5 8 -10 9.91 233.75 289.82 <
-4 8 10 78.99 434.78 299.10 <
4 8 -10 79.46 467.50 411.32 <
-3 8 10 3.80 37.40 275.83 <
3 8 -10 3.92 126.23 406.72 <
-2 8 10 950.78 1154.73 261.58 o
2 8 -10 951.20 757.35 444.22 <
-1 8 10 1554.82 2085.06 256.08 o
1 8 -10 1553.87 1192.13 336.98 o
0 8 10 1773.04 2281.41 241.92 o
0 8 -10 1773.12 2996.69 451.61 o
1 8 10 49.81 275.83 229.02 <
-1 8 -10 49.52 172.98 453.47 <
2 8 10 69.65 472.18 242.95 <
-2 8 -10 70.06 303.88 341.23 <
-7 9 10 98.34 74.80 430.10 <
7 9 -10 98.00 271.15 439.43 <
-6 9 10 530.04 705.93 500.17 <
6 9 -10 530.38 916.30 429.91 o
-5 9 10 380.23 589.05 327.16 <
5 9 -10 380.33 991.10 397.05 o
-4 9 10 322.13 308.55 275.83 <
4 9 -10 322.47 322.58 355.30 <
-3 9 10 335.98 546.98 275.73 <
3 9 -10 335.80 168.30 383.38 <
-2 9 10 165.89 579.70 261.61 o
2 9 -10 165.85 794.75 462.61 <
-1 9 10 94.45 495.55 289.72 <
1 9 -10 94.34 -42.08 504.90 <
0 9 10 759.15 532.95 285.30 <
0 9 -10 758.87 673.20 434.81 <
14 1 -11 367.92 659.18 280.35 o
-13 1 11 581.19 827.48 570.27 <
13 1 -11 580.91 673.20 313.18 o
-12 1 11 792.87 944.35 514.18 <
12 1 -11 794.52 897.60 308.48 o
-11 1 11 7669.17 7653.01 533.02 o
11 1 -11 7666.48 8022.34 362.59 o
-10 1 11 5636.80 5806.38 415.45 o
10 1 -11 5641.66 5250.05 412.77 o
-9 1 11 2932.48 3637.17 400.46 o
9 1 -11 2930.19 2968.64 355.22 o
-8 1 11 4483.51 5296.80 413.45 o
8 1 -11 4481.22 5226.68 371.35 o
-7 1 11 1701.31 1659.63 350.68 o
7 1 -11 1699.23 1425.88 318.25 o
-6 1 11 19.32 79.48 303.87 <
6 1 -11 19.11 140.25 289.84 <
-5 1 11 18173.30 19429.40 434.38 o
5 1 -11 18174.70 18887.10 402.70 o
-4 1 11 20933.50 20172.70 444.21 o
4 1 -11 20926.90 18919.80 392.35 o
-3 1 11 3371.01 3856.89 335.18 o
3 1 -11 3369.23 3221.09 290.30 o
-2 1 11 5511.07 6082.21 333.92 o
2 1 -11 5510.46 5521.20 313.18 o
-1 1 11 1521.85 1505.36 303.90 o
1 1 -11 1517.04 1304.33 238.75 o
0 1 11 337.03 406.73 257.10 <
0 1 -11 336.95 785.40 284.91 o
1 1 11 6324.97 5853.13 273.93 o
-1 1 -11 6323.12 6194.41 299.92 o
2 1 11 11741.30 13127.50 312.62 o
-2 1 -11 11742.60 11963.40 310.98 o
3 1 11 389.50 392.70 243.10 <
-3 1 -11 390.34 271.15 224.45 <
4 1 11 996.06 1103.31 210.23 o
-4 1 -11 995.04 1182.78 261.59 o
5 1 11 348.36 719.95 242.86 o
-5 1 -11 347.70 673.20 210.14 o
6 1 11 190.68 430.10 266.39 <
-6 1 -11 190.55 486.20 233.62 o
7 1 11 183.46 649.83 280.28 o
-7 1 -11 183.68 93.50 233.76 <
-14 2 11 65.27 130.90 532.95 <
14 2 -11 65.23 243.10 453.46 <
-13 2 11 145.96 215.05 486.20 <
13 2 -11 146.27 518.93 462.74 <
-12 2 11 305.83 9.35 453.50 <
12 2 -11 306.36 257.13 383.36 <
-11 2 11 146.03 561.00 429.99 <
11 2 -11 145.75 238.43 392.69 <
-10 2 11 973.55 855.53 448.86 <
10 2 -11 974.55 1182.78 383.19 o
-9 2 11 264.63 733.98 443.96 <
9 2 -11 264.29 388.03 406.70 <
-8 2 11 593.31 570.35 420.76 <
8 2 -11 592.19 850.85 383.21 o
-7 2 11 1177.53 1262.26 411.33 o
7 2 -11 1176.34 1262.26 364.57 o
-6 2 11 550.86 748.00 355.20 o
6 2 -11 548.34 584.38 317.88 <
-5 2 11 1510.62 1369.78 355.45 o
5 2 -11 1510.30 1533.41 308.52 o
-4 2 11 2105.43 2356.21 336.15 o
4 2 -11 2101.82 2454.39 298.47 o
-3 2 11 146.44 350.63 261.74 <
3 2 -11 145.49 149.60 294.53 <
-2 2 11 1402.58 1552.11 322.39 o
2 2 -11 1402.77 1098.63 285.52 o
-1 2 11 1312.04 925.66 308.90 o
1 2 -11 1311.73 1122.01 294.73 o
0 2 11 221.51 116.88 266.49 <
0 2 -11 220.95 84.15 257.14 <
1 2 11 911.87 1098.63 270.96 o
-1 2 -11 911.80 1061.23 261.65 o
2 2 11 992.75 1042.53 219.66 o
-2 2 -11 993.38 902.28 233.85 o
3 2 11 1.61 130.90 182.31 <
-3 2 -11 1.57 187.00 229.05 <
4 2 11 141.57 654.50 256.87 o
-4 2 -11 141.43 663.85 261.54 o
5 2 11 314.27 476.85 261.73 <
-5 2 -11 314.66 523.60 266.38 <
6 2 11 2.04 102.85 275.82 <
-6 2 -11 2.03 682.55 266.17 o
7 2 11 84.08 364.65 243.02 <
-7 2 -11 84.03 1122.01 420.24 o
-14 3 11 86.46 444.13 537.57 <
14 3 -11 87.08 121.55 444.12 <
-13 3 11 1345.32 1000.45 495.76 o
13 3 -11 1345.33 1439.91 415.99 o
-12 3 11 1871.77 1841.96 509.61 o
12 3 -11 1872.46 1290.31 435.31 o
-11 3 11 3202.75 3122.92 509.71 o
11 3 -11 3202.11 3150.97 439.55 o
-10 3 11 1227.54 1047.21 472.29 o
10 3 -11 1228.03 1178.11 416.11 o
-9 3 11 586.87 654.50 458.13 <
9 3 -11 586.50 1224.86 425.02 o
-8 3 11 849.82 869.55 462.82 <
8 3 -11 849.35 897.60 425.40 o
-7 3 11 6259.66 6619.83 494.29 o
7 3 -11 6260.87 5666.13 460.18 o
-6 3 11 992.75 1262.26 425.23 o
6 3 -11 993.18 977.08 439.46 o
-5 3 11 6470.24 6582.43 415.61 o
5 3 -11 6469.16 6675.93 391.77 o
-4 3 11 4490.90 5020.98 334.56 o
4 3 -11 4491.38 4553.47 341.06 o
-3 3 11 802.82 757.35 280.54 o
3 3 -11 799.90 963.05 299.07 o
-2 3 11 979.10 1014.48 299.17 o
2 3 -11 980.09 897.60 280.57 o
-1 3 11 7486.45 7335.11 290.88 o
1 3 -11 7481.82 7774.56 306.60 o
0 3 11 6.51 331.93 228.99 <
0 3 -11 6.40 98.18 266.47 <
1 3 11 2287.11 1837.28 281.35 o
-1 3 -11 2287.05 1986.88 248.45 o
2 3 11 2220.03 2384.26 252.05 o
-2 3 -11 2219.53 2267.39 275.72 o
3 3 11 79.68 172.98 266.46 <
-3 3 -11 80.05 102.85 229.07 <
4 3 11 221.97 285.18 266.46 <
-4 3 -11 221.77 701.25 378.49 <
5 3 11 2109.57 2117.79 224.38 o
-5 3 -11 2110.48 2561.91 391.96 o
6 3 11 62.64 383.35 233.65 <
-6 3 -11 62.69 612.43 359.80 <
-13 4 11 28.54 219.73 430.08 <
13 4 -11 28.43 322.58 402.01 <
-12 4 11 3.18 -79.48 425.42 <
12 4 -11 3.18 9.35 402.05 <
-11 4 11 440.94 1327.71 424.85 o
11 4 -11 441.10 411.40 369.34 <
-10 4 11 168.26 9.35 397.38 <
10 4 -11 168.64 135.58 355.30 <
-9 4 11 100.71 289.85 439.43 <
9 4 -11 100.86 -252.45 411.37 <
-8 4 11 708.83 593.73 322.64 <
8 4 -11 709.09 790.08 387.98 o
-7 4 11 371.78 0.00 453.50 <
7 4 -11 371.66 1042.53 415.73 o
-6 4 11 101.84 205.70 453.47 <
6 4 -11 101.22 649.83 434.62 <
-5 4 11 618.57 1070.58 312.87 o
5 4 -11 618.33 813.45 453.39 <
-4 4 11 613.96 1229.53 284.59 o
4 4 -11 613.72 495.55 416.12 <
-3 4 11 7.89 65.45 257.12 <
3 4 -11 7.84 -51.43 303.88 <
-2 4 11 750.96 654.50 229.15 o
2 4 -11 752.09 724.63 289.87 o
-1 4 11 380.52 224.40 215.10 <
1 4 -11 379.67 514.25 387.98 <
0 4 11 402.28 444.13 205.68 o
0 4 -11 402.43 542.30 369.28 <
1 4 11 148.77 224.40 219.71 <
-1 4 -11 149.21 -14.03 261.81 <
2 4 11 174.88 18.70 196.37 <
-2 4 -11 175.19 121.55 364.66 <
3 4 11 82.10 116.88 196.35 <
-3 4 -11 81.92 74.80 378.68 <
4 4 11 184.75 626.45 214.79 o
-4 4 -11 184.68 593.73 355.16 <
5 4 11 58.10 350.63 219.64 <
-5 4 -11 58.21 355.30 364.60 <
6 4 11 162.53 546.98 247.60 o
-6 4 -11 162.42 266.48 388.01 <
-13 5 11 37.86 687.23 532.80 <
13 5 -11 37.48 233.75 402.03 <
-12 5 11 165.46 112.20 430.11 <
12 5 -11 165.32 285.18 364.63 <
-11 5 11 3005.14 3819.49 531.51 o
11 5 -11 3004.38 2949.94 416.18 o
-10 5 11 5385.85 4955.52 510.72 o
10 5 -11 5387.08 4277.65 465.79 o
-9 5 11 1570.51 1598.86 420.72 o
9 5 -11 1572.30 972.41 379.17 o
-8 5 11 1365.94 1608.21 457.94 o
8 5 -11 1365.67 1126.68 420.93 o
-7 5 11 298.54 350.63 448.79 <
7 5 -11 296.00 -46.75 289.87 <
-6 5 11 8.64 126.23 458.15 <
6 5 -11 8.68 205.70 383.33 <
-5 5 11 6014.09 6488.93 357.74 o
5 5 -11 6014.01 5764.30 463.67 o
-4 5 11 18038.50 21201.20 330.78 o
4 5 -11 18045.00 16558.90 522.67 o
-3 5 11 1063.13 977.08 224.50 o
3 5 -11 1061.52 1748.46 420.09 o
-2 5 11 1434.03 1673.66 238.00 o
2 5 -11 1436.08 1397.83 364.69 o
-1 5 11 507.63 565.68 219.69 o
1 5 -11 505.58 -28.05 378.73 <
0 5 11 42.70 65.45 229.07 <
0 5 -11 42.53 748.00 355.03 o
1 5 11 2040.43 2519.84 232.46 o
-1 5 -11 2041.91 2402.96 359.37 o
2 5 11 10137.70 12141.00 252.63 o
-2 5 -11 10136.50 9018.12 455.00 o
3 5 11 70.38 514.25 233.57 o
-3 5 -11 70.53 490.88 392.60 <
4 5 11 342.46 752.68 219.42 o
-4 5 -11 342.14 663.85 359.84 <
5 5 11 89.22 243.10 219.69 <
-5 5 -11 88.28 364.65 327.19 <
-12 6 11 527.12 687.23 504.85 <
12 6 -11 527.18 1019.16 439.20 o
-11 6 11 342.20 556.33 476.79 <
11 6 -11 342.35 705.93 448.68 <
-10 6 11 1453.14 1425.88 416.10 o
10 6 -11 1452.94 1575.48 434.66 o
-9 6 11 389.17 196.35 327.29 <
9 6 -11 388.65 593.73 303.78 <
-8 6 11 1082.80 1131.36 444.10 o
8 6 -11 1082.85 1126.68 387.99 o
-7 6 11 1382.45 1458.61 430.03 o
7 6 -11 1381.67 804.10 416.45 <
-6 6 11 1327.73 1122.01 402.21 o
6 6 -11 1327.53 1164.08 392.84 o
-5 6 11 1948.74 2033.64 359.85 o
5 6 -11 1949.42 1893.38 388.10 o
-4 6 11 3310.38 3286.54 289.92 o
4 6 -11 3310.28 2748.91 403.14 o
-3 6 11 268.41 116.88 224.43 <
3 6 -11 269.16 1019.16 396.99 o
-2 6 11 1594.55 1262.26 220.28 o
2 6 -11 1593.24 1430.56 374.17 o
-1 6 11 1749.67 1982.21 219.19 o
1 6 -11 1750.87 1042.53 407.32 o
0 6 11 329.59 448.80 229.02 <
0 6 -11 329.91 546.98 299.11 <
1 6 11 1665.53 1640.93 233.80 o
-1 6 -11 1665.13 1243.56 411.78 o
2 6 11 1250.44 1229.53 219.76 o
-2 6 -11 1250.33 1079.93 383.49 o
3 6 11 45.24 518.93 238.24 o
-3 6 -11 45.39 448.80 378.59 <
4 6 11 347.35 593.73 252.32 o
-4 6 -11 347.42 939.68 448.54 o
-10 7 11 125.25 215.05 331.91 <
10 7 -11 125.57 439.45 322.49 <
-9 7 11 78.67 121.55 458.15 <
9 7 -11 78.26 116.88 444.12 <
-8 7 11 147.02 70.13 420.76 <
8 7 -11 147.35 584.38 411.28 <
-7 7 11 2989.97 3473.54 419.74 o
7 7 -11 2989.39 3468.87 396.31 o
-6 7 11 504.04 364.65 341.32 <
6 7 -11 503.99 23.38 280.58 <
-5 7 11 1040.79 556.33 355.56 <
5 7 -11 1040.89 1107.98 383.30 o
-4 7 11 226.68 51.43 266.50 <
4 7 -11 226.87 -79.48 392.71 <
-3 7 11 221.63 70.13 238.45 <
3 7 -11 221.55 0.00 406.74 <
-2 7 11 230.18 116.88 238.45 <
2 7 -11 231.04 144.93 359.99 <
-1 7 11 3485.79 3959.74 255.25 o
1 7 -11 3485.82 3235.12 323.26 o
0 7 11 79.58 177.65 233.74 <
0 7 -11 79.73 60.78 425.43 <
1 7 11 422.89 570.35 228.99 o
-1 7 -11 422.98 537.63 425.39 <
2 7 11 157.75 528.28 214.87 o
-2 7 -11 157.24 182.33 327.25 <
3 7 11 73.54 336.60 261.73 <
-3 7 -11 73.55 790.08 397.11 <
-8 8 11 255.79 1122.01 434.33 o
8 8 -11 255.87 126.23 378.69 <
-7 8 11 95.78 201.03 383.34 <
7 8 -11 95.53 378.68 383.30 <
-6 8 11 159.16 416.08 369.27 <
6 8 -11 159.18 402.05 420.70 <
-5 8 11 166.14 275.83 355.28 <
5 8 -11 166.10 294.53 411.38 <
-4 8 11 424.44 481.53 299.18 <
4 8 -11 424.59 808.78 420.59 <
-3 8 11 51.46 182.33 243.08 <
3 8 -11 51.57 98.18 383.35 <
-2 8 11 259.72 635.80 247.57 o
2 8 -11 259.68 257.13 374.00 <
-1 8 11 85.00 215.05 243.08 <
1 8 -11 84.96 28.05 388.03 <
0 8 11 274.06 425.43 247.71 <
0 8 -11 274.11 855.53 453.25 <
1 8 11 5.97 313.23 252.38 <
-1 8 -11 5.96 224.40 481.51 <
-4 9 11 3571.69 3244.47 328.14 o
4 9 -11 3571.61 2449.71 427.41 o
14 0 -12 195.97 518.93 369.23 <
13 0 -12 394.52 649.83 387.93 <
-12 0 12 24.90 345.95 500.19 <
12 0 -12 24.91 18.70 490.88 <
-11 0 12 1413.68 2052.34 593.20 o
11 0 -12 1412.01 1879.36 541.91 o
-10 0 12 28402.20 28377.40 738.91 o
10 0 -12 28408.00 27166.60 755.51 o
-9 0 12 122.29 74.80 565.68 <
9 0 -12 122.54 23.38 486.20 <
-8 0 12 777.54 1150.06 528.09 o
8 0 -12 778.55 518.93 448.90 <
-7 0 12 4282.38 3651.19 487.54 o
7 0 -12 4279.34 4202.85 505.07 o
-6 0 12 222.96 257.13 467.50 <
6 0 -12 221.48 -60.78 453.48 <
-5 0 12 344.52 -191.68 486.20 <
5 0 -12 344.59 -107.53 434.79 <
-4 0 12 54102.60 54693.10 798.10 o
4 0 -12 54111.30 53851.60 725.12 o
-3 0 12 831.77 84.15 430.26 <
3 0 -12 833.17 733.98 346.01 o
-2 0 12 191.69 -70.13 378.68 <
2 0 -12 191.56 140.25 345.96 <
-1 0 12 3362.20 3202.39 439.77 o
1 0 -12 3358.52 3132.27 407.20 o
0 0 12 479.86 -37.40 369.38 <
0 0 -12 479.45 116.88 355.37 <
1 0 12 1113.32 916.30 299.37 o
-1 0 -12 1112.82 402.05 402.35 <
2 0 12 16865.70 16096.10 460.82 o
-2 0 -12 16869.70 17208.80 487.72 o
3 0 12 658.86 514.25 374.06 <
-3 0 -12 659.67 -51.43 374.10 <
4 0 12 155.99 -144.93 369.32 <
-4 0 -12 156.60 -425.43 369.23 <
5 0 12 185.40 392.70 392.66 <
-5 0 -12 184.37 603.08 387.89 <
6 0 12 191.51 645.15 420.61 <
-6 0 -12 191.23 659.18 420.60 <
14 1 -12 99.56 261.80 327.22 <
-13 1 12 1453.54 1813.91 504.58 o
13 1 -12 1453.18 1584.83 341.12 o
-12 1 12 82.73 266.48 532.93 <
12 1 -12 82.87 402.05 313.15 <
-11 1 12 388.08 187.00 369.36 <
11 1 -12 388.01 392.70 350.62 <
-10 1 12 4806.53 5100.45 419.82 o
10 1 -12 4805.50 5119.15 386.95 o
-9 1 12 16.45 140.25 369.32 <
9 1 -12 16.45 102.85 317.90 <
-8 1 12 747.74 832.15 364.60 o
8 1 -12 748.97 345.95 327.41 <
-7 1 12 9932.32 10930.20 413.99 o
7 1 -12 9932.83 10229.00 400.06 o
-6 1 12 153.30 144.93 383.35 <
6 1 -12 153.08 383.35 294.46 <
-5 1 12 1176.54 860.20 318.16 o
5 1 -12 1179.26 1107.98 275.90 o
-4 1 12 13494.00 14469.20 383.22 o
4 1 -12 13495.30 13646.40 358.45 o
-3 1 12 797.31 378.68 313.41 <
3 1 -12 797.96 612.43 243.24 o
-2 1 12 690.83 317.90 308.69 <
2 1 -12 691.34 771.38 271.09 o
-1 1 12 10578.60 10869.40 329.40 o
1 1 -12 10579.20 10696.50 326.23 o
0 1 12 1156.92 1192.13 303.84 o
0 1 -12 1156.68 1201.48 289.80 o
1 1 12 436.90 612.43 280.41 o
-1 1 -12 436.74 729.30 270.97 o
2 1 12 4937.65 5502.50 268.18 o
-2 1 -12 4937.81 5483.80 244.64 o
3 1 12 1013.48 1397.83 270.67 o
-3 1 -12 1012.96 1079.93 271.08 o
4 1 12 82.49 28.05 219.73 <
-4 1 -12 82.36 149.60 229.07 <
5 1 12 1705.03 2215.96 251.35 o
-5 1 -12 1704.84 1893.38 252.09 o
6 1 12 480.69 1238.88 275.10 o
-6 1 -12 480.49 486.20 219.72 o
-14 2 12 7.72 350.63 537.59 <
14 2 -12 7.81 229.08 458.13 <
-13 2 12 1307.21 1725.08 541.98 o
13 2 -12 1308.29 1617.56 439.17 o
-12 2 12 207.04 575.03 523.52 <
12 2 -12 207.44 682.55 415.92 <
-11 2 12 381.08 397.38 462.82 <
11 2 -12 380.73 299.20 402.07 <
-10 2 12 4975.64 5109.80 476.47 o
10 2 -12 4974.20 5049.02 434.55 o
-9 2 12 668.30 771.38 462.78 <
9 2 -12 669.21 691.90 448.79 <
-8 2 12 146.62 439.45 401.99 <
8 2 -12 147.18 406.73 327.18 <
-7 2 12 3509.75 2945.26 412.55 o
7 2 -12 3513.19 3216.42 337.38 o
-6 2 12 1866.43 1697.03 397.58 o
6 2 -12 1863.40 1767.16 318.05 o
-5 2 12 87.81 247.78 336.58 <
5 2 -12 87.49 -107.53 303.87 <
-4 2 12 10010.80 10659.10 378.61 o
4 2 -12 10008.90 10126.10 330.98 o
-3 2 12 382.70 322.58 336.62 <
3 2 -12 383.22 294.53 280.53 <
-2 2 12 451.17 668.53 256.99 o
2 2 -12 450.09 906.95 280.17 o
-1 2 12 2388.72 2585.29 312.80 o
1 2 -12 2392.79 2314.14 290.02 o
0 2 12 1097.92 1496.01 265.93 o
0 2 -12 1098.54 841.50 252.70 o
1 2 12 488.09 0.00 271.23 <
-1 2 -12 489.03 -112.20 238.49 <
2 2 12 3849.59 3557.69 248.92 o
-2 2 -12 3847.47 3861.57 257.07 o
3 2 12 110.00 177.65 229.06 <
-3 2 -12 110.15 -14.03 271.15 <
4 2 12 526.99 958.38 242.71 o
-4 2 -12 526.85 1126.68 275.29 o
5 2 12 506.81 509.58 243.10 o
-5 2 -12 507.64 542.30 266.46 o
6 2 12 156.76 219.73 261.79 <
-6 2 -12 156.89 355.30 210.30 <
-14 3 12 5.64 70.13 579.70 <
14 3 -12 5.65 65.45 472.18 <
-13 3 12 613.76 1112.66 514.01 o
13 3 -12 614.02 425.43 439.51 <
-12 3 12 127.69 149.60 500.23 <
12 3 -12 127.44 102.85 406.73 <
-11 3 12 26.15 677.88 472.01 <
11 3 -12 26.11 107.53 420.75 <
-10 3 12 1506.56 1729.76 467.29 o
10 3 -12 1507.12 1678.33 425.25 o
-9 3 12 393.70 116.88 444.16 <
9 3 -12 393.53 364.65 411.41 <
-8 3 12 18.78 -98.18 411.40 <
8 3 -12 18.85 -187.00 430.09 <
-7 3 12 3564.45 4076.62 400.72 o
7 3 -12 3562.45 3609.12 415.97 o
-6 3 12 61.01 327.25 387.98 <
6 3 -12 60.74 177.65 341.26 <
-5 3 12 270.00 289.85 350.62 <
5 3 -12 270.92 374.00 327.22 <
-4 3 12 4525.32 5437.05 351.77 o
4 3 -12 4523.79 4988.25 330.12 o
-3 3 12 44.78 102.85 252.45 <
3 3 -12 45.01 322.58 308.50 <
-2 3 12 46.44 56.10 280.50 <
2 3 -12 46.73 -4.68 280.50 <
-1 3 12 4194.73 4646.97 287.98 o
1 3 -12 4196.02 4530.10 264.99 o
0 3 12 107.90 378.68 280.43 <
0 3 -12 107.99 275.83 280.47 <
1 3 12 125.66 14.03 252.46 <
-1 3 -12 125.79 219.73 261.78 <
2 3 12 2935.65 2758.26 280.98 o
-2 3 -12 2936.05 2720.86 276.41 o
3 3 12 142.59 439.45 275.73 <
-3 3 -12 142.85 336.60 243.04 <
4 3 12 14.38 369.33 243.00 <
-4 3 -12 14.47 467.50 345.84 <
5 3 12 979.66 906.95 215.13 o
-5 3 -12 979.76 1411.86 354.89 o
-13 4 12 93.47 762.03 504.71 <
13 4 -12 93.37 374.00 420.70 <
-12 4 12 180.51 612.43 462.71 <
12 4 -12 180.74 719.95 415.89 <
-11 4 12 255.36 832.15 411.16 o
11 4 -12 255.43 261.80 411.40 <
-10 4 12 14399.50 12786.20 534.44 o
10 4 -12 14398.90 12692.70 530.43 o
-9 4 12 502.60 392.70 434.81 <
9 4 -12 503.22 317.90 402.10 <
-8 4 12 179.12 -56.10 434.78 <
8 4 -12 179.44 93.50 402.06 <
-7 4 12 1389.73 1229.53 406.86 o
7 4 -12 1390.81 1870.01 424.91 o
-6 4 12 514.20 467.50 359.99 <
6 4 -12 513.52 98.18 425.49 <
-5 4 12 100.29 224.40 261.78 <
5 4 -12 100.27 299.20 387.99 <
-4 4 12 26485.20 29569.50 349.72 o
4 4 -12 26486.90 26773.90 613.79 o
-3 4 12 2391.78 3029.42 255.26 o
3 4 -12 2388.91 1481.98 389.14 o
-2 4 12 6.14 56.10 205.70 <
2 4 -12 6.12 -121.55 411.40 <
-1 4 12 997.00 738.65 201.31 o
1 4 -12 995.97 738.65 355.46 o
0 4 12 605.39 369.33 219.85 <
0 4 -12 604.87 654.50 359.95 <
1 4 12 832.26 939.68 224.29 o
-1 4 -12 832.42 1098.63 373.81 o
2 4 12 8299.84 8742.29 248.40 o
-2 4 -12 8299.39 7190.19 389.14 o
3 4 12 1311.00 1650.28 237.84 o
-3 4 -12 1312.69 1510.03 350.41 o
4 4 12 85.58 504.90 205.50 o
-4 4 -12 85.92 210.38 336.58 <
5 4 12 26.68 500.23 224.21 o
-5 4 -12 26.36 598.40 415.93 <
-12 5 12 5.74 673.20 486.04 <
12 5 -12 5.71 453.48 430.02 <
-11 5 12 495.15 500.23 500.23 <
11 5 -12 495.46 846.18 378.50 o
-10 5 12 1574.73 2014.93 452.99 o
10 5 -12 1574.74 1360.43 453.66 o
-9 5 12 398.51 369.33 472.18 <
9 5 -12 398.61 458.15 439.44 <
-8 5 12 625.49 584.38 439.47 <
8 5 -12 625.95 500.23 369.38 <
-7 5 12 2412.64 2239.34 411.66 o
7 5 -12 2414.70 1790.53 430.88 o
-6 5 12 384.31 364.65 500.23 <
6 5 -12 383.94 -243.10 416.06 <
-5 5 12 1696.71 1711.06 303.86 o
5 5 -12 1697.19 1477.31 383.59 o
-4 5 12 2992.79 3127.59 266.06 o
4 5 -12 2993.08 1837.28 320.05 o
-3 5 12 1563.16 1650.28 242.95 o
3 5 -12 1563.97 2524.51 424.10 o
-2 5 12 580.16 537.63 224.43 o
2 5 -12 579.41 187.00 383.44 <
-1 5 12 2352.12 2136.49 238.96 o
1 5 -12 2350.35 2047.66 365.13 o
0 5 12 992.23 1280.96 233.36 o
0 5 -12 992.20 1739.11 387.26 o
1 5 12 652.64 369.33 238.57 <
-1 5 -12 652.95 472.18 383.42 <
2 5 12 960.76 710.60 224.64 o
-2 5 -12 960.71 1005.13 373.97 o
3 5 12 791.18 1009.81 233.52 o
-3 5 -12 791.09 911.63 350.55 o
4 5 12 34.51 252.45 205.65 <
-4 5 -12 34.42 144.93 350.62 <
-11 6 12 525.96 1014.48 420.49 o
11 6 -12 526.02 766.70 383.24 <
-10 6 12 1308.46 2089.74 476.05 o
10 6 -12 1307.88 1982.21 448.10 o
-9 6 12 306.62 514.25 453.42 <
9 6 -12 306.86 920.98 420.47 o
-8 6 12 414.54 584.38 448.75 <
8 6 -12 415.42 556.33 434.73 <
-7 6 12 1457.70 1874.68 439.01 o
7 6 -12 1458.89 1519.38 313.15 o
-6 6 12 1092.92 991.10 397.45 o
6 6 -12 1092.32 1065.91 392.72 o
-5 6 12 290.18 458.15 336.55 <
5 6 -12 290.16 308.55 392.70 <
-4 6 12 2675.36 2884.49 279.94 o
4 6 -12 2673.02 2351.54 411.91 o
-3 6 12 437.17 570.35 238.35 o
3 6 -12 437.62 705.93 401.94 <
-2 6 12 580.01 949.03 228.72 o
2 6 -12 579.21 1028.51 406.47 o
-1 6 12 936.10 981.76 224.35 o
1 6 -12 937.52 752.68 360.09 o
0 6 12 1174.18 1290.31 238.26 o
0 6 -12 1173.96 822.80 290.15 o
1 6 12 21.61 509.58 224.20 o
-1 6 -12 21.81 84.15 392.70 <
2 6 12 1166.47 1290.31 224.22 o
-2 6 -12 1165.51 1552.11 415.72 o
3 6 12 31.67 542.30 252.25 o
-3 6 -12 31.59 719.95 420.54 <
-10 7 12 13.49 444.13 453.40 <
10 7 -12 13.50 219.73 388.01 <
-9 7 12 318.63 635.80 331.79 <
9 7 -12 318.98 130.90 430.13 <
-8 7 12 72.61 659.18 467.35 <
8 7 -12 72.55 275.83 439.43 <
-7 7 12 42.12 392.70 420.69 <
7 7 -12 42.07 -32.73 416.08 <
-6 7 12 191.24 317.90 397.35 <
6 7 -12 190.93 294.53 280.48 <
-5 7 12 607.50 532.95 336.64 <
5 7 -12 607.09 448.80 416.13 <
-4 7 12 70.62 238.43 285.15 <
4 7 -12 70.76 878.90 411.08 o
-3 7 12 352.03 345.95 238.43 <
3 7 -12 352.45 215.05 402.08 <
-2 7 12 153.38 359.98 257.06 <
2 7 -12 153.13 444.13 425.36 <
-1 7 12 110.50 359.98 243.02 <
1 7 -12 110.69 378.68 425.38 <
0 7 12 80.97 341.28 229.00 <
0 7 -12 80.90 416.08 397.31 <
1 7 12 521.16 378.68 229.15 <
-1 7 -12 520.95 640.48 425.38 <
-7 8 12 98.90 -107.53 378.67 <
7 8 -12 99.81 397.38 378.61 <
-6 8 12 1010.43 888.25 322.67 o
6 8 -12 1010.81 1542.76 321.98 o
-5 8 12 232.03 458.15 359.91 <
5 8 -12 232.02 790.08 453.28 <
-4 8 12 2843.45 2865.79 313.17 o
4 8 -12 2841.87 2463.74 323.39 o
-3 8 12 2093.03 2103.76 294.51 o
3 8 -12 2093.51 2141.16 434.71 o
-2 8 12 48.95 369.33 271.07 <
2 8 -12 48.93 958.38 420.37 o
-1 8 12 92.15 439.45 247.65 <
1 8 -12 92.91 939.68 425.08 o
-14 1 13 16.11 663.85 570.22 <
14 1 -13 16.20 406.73 387.95 <
-13 1 13 99.27 364.65 612.40 <
13 1 -13 99.58 201.03 331.91 <
-12 1 13 19.17 187.00 537.62 <
12 1 -13 19.32 154.28 345.94 <
-11 1 13 862.18 1047.21 401.93 o
11 1 -13 860.47 916.30 369.29 o
-10 1 13 7484.86 8386.99 463.32 o
10 1 -13 7481.63 8069.09 417.81 o
-9 1 13 2752.30 2758.26 392.69 o
9 1 -13 2752.83 2716.19 336.68 o
-8 1 13 101.79 126.23 336.60 <
8 1 -13 102.28 476.85 294.41 <
-7 1 13 107.25 -42.08 331.93 <
7 1 -13 108.65 369.33 271.08 <
-6 1 13 285.21 280.50 322.58 <
6 1 -13 284.55 336.60 308.54 <
-5 1 13 4336.63 4810.60 344.25 o
5 1 -13 4338.26 4310.37 294.64 o
-4 1 13 7451.42 7783.91 339.28 o
4 1 -13 7450.55 7512.76 308.15 o
-3 1 13 4864.30 4918.12 327.04 o
3 1 -13 4863.74 4483.35 305.41 o
-2 1 13 475.40 532.95 299.17 <
2 1 -13 476.73 341.28 275.88 <
-1 1 13 61.04 514.25 285.02 <
1 1 -13 61.37 -107.53 247.77 <
0 1 13 107.74 439.45 285.07 <
0 1 -13 107.39 748.00 275.49 o
1 1 13 2988.58 3548.34 245.74 o
-1 1 -13 2988.92 3319.27 293.57 o
2 1 13 1326.29 1337.06 271.14 o
-2 1 -13 1325.03 1617.56 266.03 o
3 1 13 1195.56 1711.06 251.61 o
-3 1 -13 1195.51 1575.48 270.61 o
4 1 13 531.17 542.30 243.10 o
-4 1 -13 531.37 645.15 238.35 o
5 1 13 21.49 490.88 285.03 <
-5 1 -13 21.59 598.40 294.31 o
-14 2 13 5.52 397.38 537.58 <
14 2 -13 5.52 -56.10 453.48 <
-13 2 13 46.85 598.40 542.19 <
13 2 -13 46.78 116.88 495.55 <
-12 2 13 13.96 14.03 523.60 <
12 2 -13 14.00 201.03 425.41 <
-11 2 13 13.76 -93.50 458.15 <
11 2 -13 13.73 -32.73 406.73 <
-10 2 13 85.52 247.78 439.43 <
10 2 -13 85.55 257.13 420.73 <
-9 2 13 98.64 -154.28 416.07 <
9 2 -13 98.81 154.28 374.00 <
-8 2 13 5.50 -4.68 369.33 <
8 2 -13 5.52 28.05 327.25 <
-7 2 13 197.26 28.05 345.96 <
7 2 -13 197.81 126.23 322.58 <
-6 2 13 192.60 -37.40 327.26 <
6 2 -13 192.18 93.50 289.86 <
-5 2 13 84.96 -98.18 355.30 <
5 2 -13 84.88 402.05 308.47 <
-4 2 13 72.35 327.25 317.85 <
4 2 -13 72.79 121.55 266.47 <
-3 2 13 154.48 130.90 280.51 <
3 2 -13 153.99 196.35 275.82 <
-2 2 13 51.64 355.30 271.08 <
2 2 -13 51.63 -23.38 266.48 <
-1 2 13 69.62 341.28 271.08 <
1 2 -13 69.79 406.73 280.41 <
0 2 13 65.47 -88.83 280.50 <
0 2 -13 65.58 210.38 271.13 <
1 2 13 163.57 691.90 233.44 o
-1 2 -13 163.32 84.15 257.14 <
2 2 13 4.51 130.90 261.79 <
-2 2 -13 4.52 46.75 247.77 <
3 2 13 11.17 -116.88 219.71 <
-3 2 -13 11.30 243.10 261.76 <
4 2 13 44.73 331.93 289.79 <
-4 2 -13 44.64 579.70 289.65 <
-13 3 13 111.47 252.45 537.61 <
13 3 -13 112.12 224.40 448.79 <
-12 3 13 439.74 617.10 514.20 <
12 3 -13 439.96 804.10 429.95 <
-11 3 13 858.68 1136.03 490.72 o
11 3 -13 858.60 892.93 439.43 o
-10 3 13 5902.16 6054.16 509.10 o
10 3 -13 5898.50 6306.61 466.06 o
-9 3 13 5752.62 6091.56 494.46 o
9 3 -13 5753.14 4787.22 456.37 o
-8 3 13 101.18 -32.73 439.45 <
8 3 -13 101.70 79.48 374.00 <
-7 3 13 359.45 121.55 416.11 <
7 3 -13 362.15 -88.83 439.47 <
-6 3 13 2935.60 2982.66 392.61 o
6 3 -13 2933.14 3057.47 350.34 o
-5 3 13 2857.49 3094.87 298.56 o
5 3 -13 2855.14 2875.14 313.18 o
-4 3 13 5519.43 6100.91 376.25 o
4 3 -13 5520.06 5946.63 320.52 o
-3 3 13 10275.30 12631.90 338.67 o
3 3 -13 10276.50 11210.70 328.44 o
-2 3 13 695.38 1285.63 251.77 o
2 3 -13 698.17 935.01 261.60 o
-1 3 13 186.10 51.43 238.44 <
1 3 -13 186.98 345.95 243.05 <
0 3 13 1845.81 2244.01 275.01 o
0 3 -13 1845.26 2113.11 237.82 o
1 3 13 1894.45 1622.23 238.95 o
-1 3 -13 1893.28 1687.68 271.51 o
2 3 13 1003.26 1234.21 294.28 o
-2 3 -13 1002.76 1505.36 293.92 o
3 3 13 2705.78 2917.21 284.61 o
-3 3 -13 2706.31 2028.96 421.72 o
4 3 13 688.08 1519.38 298.28 o
-4 3 -13 688.40 383.35 289.99 <
-13 4 13 434.01 598.40 504.86 <
13 4 -13 433.91 654.50 434.70 <
-12 4 13 319.58 640.48 462.73 <
12 4 -13 319.79 453.48 359.94 <
-11 4 13 51.66 341.28 458.11 <
11 4 -13 51.57 -4.68 411.40 <
-10 4 13 1250.10 841.50 458.39 <
10 4 -13 1249.95 1318.36 420.70 o
-9 4 13 1293.40 1720.41 420.33 o
9 4 -13 1292.74 1065.91 388.20 o
-8 4 13 136.00 448.80 430.04 <
8 4 -13 136.60 140.25 402.05 <
-7 4 13 1973.38 2061.69 453.37 o
7 4 -13 1971.94 2145.84 415.84 o
-6 4 13 1317.67 1136.03 332.10 o
6 4 -13 1315.91 1393.16 425.36 o
-5 4 13 139.84 219.73 285.16 <
5 4 -13 139.80 196.35 434.77 <
-4 4 13 2747.48 2753.59 252.43 o
4 4 -13 2746.99 2720.86 444.17 o
-3 4 13 1414.02 1416.53 243.10 o
3 4 -13 1414.09 1061.23 378.97 o
-2 4 13 549.39 575.03 219.71 o
2 4 -13 549.12 794.75 364.52 o
-1 4 13 1320.04 1252.91 229.18 o
1 4 -13 1319.43 1201.48 378.78 o
0 4 13 832.08 532.95 238.64 o
0 4 -13 832.51 528.28 378.81 <
1 4 13 225.78 705.93 214.73 o
-1 4 -13 225.70 -331.93 392.65 <
2 4 13 782.92 1229.53 233.20 o
-2 4 -13 782.99 906.95 359.90 o
3 4 13 276.84 420.75 243.04 <
-3 4 -13 276.78 458.15 280.43 <
-12 5 13 192.56 -37.40 476.86 <
12 5 -13 192.54 696.58 429.94 <
-11 5 13 325.55 172.98 406.75 <
11 5 -13 325.16 299.20 439.46 <
-10 5 13 2736.83 2856.44 495.37 o
10 5 -13 2735.45 2454.39 458.57 o
-9 5 13 157.91 719.95 425.24 <
9 5 -13 157.81 420.75 467.45 <
-8 5 13 241.92 355.30 448.78 <
8 5 -13 242.16 406.73 397.34 <
-7 5 13 158.75 135.58 406.73 <
7 5 -13 159.42 177.65 439.45 <
-6 5 13 477.97 481.53 406.73 <
6 5 -13 478.61 191.68 388.08 <
-5 5 13 1504.47 1505.36 299.20 o
5 5 -13 1503.07 1257.58 322.85 o
-4 5 13 2208.87 1827.93 271.88 o
4 5 -13 2209.69 2164.54 327.33 o
-3 5 13 326.18 467.50 243.04 <
3 5 -13 325.88 551.65 373.92 <
-2 5 13 295.90 336.60 210.36 <
2 5 -13 297.31 416.08 350.59 <
-1 5 13 186.95 336.60 238.38 <
1 5 -13 187.20 308.55 378.65 <
0 5 13 445.43 762.03 238.19 o
0 5 -13 446.02 864.88 401.85 o
1 5 13 1423.17 1304.33 243.28 o
-1 5 -13 1422.76 1809.23 420.34 o
2 5 13 457.45 972.41 233.28 o
-2 5 -13 457.44 603.08 373.94 <
3 5 13 149.38 785.40 238.02 o
-3 5 -13 149.09 187.00 350.62 <
-10 6 13 78.43 84.15 472.18 <
10 6 -13 78.40 626.45 387.86 <
-9 6 13 264.33 416.08 462.80 <
9 6 -13 264.26 294.53 388.02 <
-8 6 13 36.49 210.38 425.41 <
8 6 -13 36.64 79.48 359.98 <
-7 6 13 235.74 453.48 425.38 <
7 6 -13 235.65 635.80 425.30 <
-6 6 13 204.87 299.20 560.99 <
6 6 -13 204.77 -84.15 430.10 <
-5 6 13 417.58 392.70 299.21 <
5 6 -13 417.36 818.13 401.87 o
-4 6 13 33.86 289.85 266.42 <
4 6 -13 33.79 93.50 350.62 <
-3 6 13 194.74 70.13 233.77 <
3 6 -13 195.09 827.48 359.69 o
-2 6 13 184.36 252.45 238.41 <
2 6 -13 184.51 416.08 289.78 <
-1 6 13 93.12 388.03 247.68 <
1 6 -13 92.99 163.63 280.49 <
0 6 13 82.42 308.55 224.34 <
0 6 -13 82.49 158.95 303.87 <
1 6 13 328.83 448.80 238.37 <
-1 6 -13 328.68 542.30 285.08 <
-9 7 13 1995.53 1963.51 341.33 o
9 7 -13 1995.75 1855.98 453.63 o
-8 7 13 418.32 378.68 444.14 <
8 7 -13 418.37 514.25 425.40 <
-7 7 13 405.52 710.60 303.71 o
7 7 -13 406.24 705.93 415.96 <
-6 7 13 907.66 1103.31 429.98 o
6 7 -13 907.70 799.43 313.30 o
-5 7 13 183.80 453.48 345.88 <
5 7 -13 183.28 668.53 429.95 <
-4 7 13 654.77 808.78 289.74 o
4 7 -13 654.35 804.10 313.13 o
-3 7 13 3107.51 2870.46 276.50 o
3 7 -13 3108.06 3380.04 429.55 o
-2 7 13 1214.37 1323.03 271.01 o
2 7 -13 1215.16 757.35 421.02 <
-1 7 13 212.06 420.75 261.73 <
1 7 -13 212.24 243.10 439.45 <
0 7 13 638.57 551.65 261.85 o
0 7 -13 638.31 920.98 411.25 o
-13 0 14 567.14 617.10 528.26 <
13 0 -14 567.47 682.55 537.59 <
-12 0 14 276.06 299.20 626.45 <
12 0 -14 276.87 238.43 532.96 <
-11 0 14 1736.15 2122.46 579.35 o
11 0 -14 1737.11 1570.81 537.76 o
-10 0 14 165.62 355.30 504.87 <
10 0 -14 166.04 336.60 500.20 <
-9 0 14 2864.51 2650.74 561.28 o
9 0 -14 2864.67 3538.99 494.35 o
-8 0 14 1767.50 1435.23 430.42 o
8 0 -14 1768.02 2122.46 439.02 o
-7 0 14 1127.58 1636.26 448.36 o
7 0 -14 1125.88 1640.93 429.63 o
-6 0 14 1054.96 977.08 434.83 o
6 0 -14 1056.53 565.68 350.90 <
-5 0 14 3066.05 3403.42 485.59 o
5 0 -14 3063.51 3239.79 392.32 o
-4 0 14 80.44 163.63 425.42 <
4 0 -14 80.10 23.38 397.38 <
-3 0 14 2843.76 2211.29 463.71 o
3 0 -14 2844.60 2384.26 402.83 o
-2 0 14 3260.76 3132.27 425.68 o
2 0 -14 3260.71 3305.24 401.95 o
-1 0 14 388.20 640.48 397.28 <
1 0 -14 387.78 374.00 378.68 <
0 0 14 516.27 532.95 430.10 <
0 0 -14 517.07 -191.68 392.72 <
1 0 14 1004.74 1598.86 373.41 o
-1 0 -14 1004.66 1369.78 425.14 o
2 0 14 110.26 163.63 355.30 <
-2 0 -14 110.11 331.93 397.34 <
3 0 14 572.20 205.70 425.50 <
-3 0 -14 572.43 257.13 378.76 <
4 0 14 1223.56 1056.56 434.89 o
-4 0 -14 1223.44 1051.88 388.16 o
-13 1 14 240.39 275.83 546.97 <
13 1 -14 240.48 336.60 388.01 <
-12 1 14 930.97 1243.56 574.86 o
12 1 -14 930.84 832.15 411.46 o
-11 1 14 241.14 378.68 397.35 <
11 1 -14 241.34 364.65 350.60 <
-10 1 14 420.76 425.43 378.68 <
10 1 -14 420.42 369.33 317.92 <
-9 1 14 2069.79 1986.88 341.41 o
9 1 -14 2070.06 2187.91 317.69 o
-8 1 14 629.99 705.93 336.56 o
8 1 -14 629.72 846.18 289.70 o
-7 1 14 705.49 878.90 327.14 o
7 1 -14 704.61 813.45 280.42 o
-6 1 14 2843.47 2987.34 350.30 o
6 1 -14 2844.28 3104.22 303.19 o
-5 1 14 1514.37 1309.01 318.14 o
5 1 -14 1512.96 1706.38 284.88 o
-4 1 14 506.47 677.88 322.49 o
4 1 -14 505.97 537.63 280.49 <
-3 1 14 2770.11 3300.57 321.20 o
3 1 -14 2770.55 3043.44 289.11 o
-2 1 14 1726.10 2136.49 289.10 o
2 1 -14 1725.35 2000.91 275.32 o
-1 1 14 351.75 -18.70 275.86 <
1 1 -14 351.70 584.38 280.39 o
0 1 14 1574.62 1907.41 275.25 o
0 1 -14 1574.32 1622.23 261.72 o
1 1 14 1448.17 1813.91 303.33 o
-1 1 -14 1448.63 1683.01 284.82 o
2 1 14 75.40 388.03 289.77 <
-2 1 -14 75.39 247.78 271.12 <
3 1 14 715.23 785.40 261.75 o
-3 1 -14 714.96 617.10 299.26 o
4 1 14 698.20 603.08 280.56 o
-4 1 -14 698.57 1136.03 303.50 o
-13 2 14 258.29 430.10 542.27 <
13 2 -14 258.62 388.03 504.88 <
-12 2 14 1174.93 1631.58 509.22 o
12 2 -14 1175.43 972.41 453.60 o
-11 2 14 289.08 168.30 462.84 <
11 2 -14 288.24 467.50 425.38 <
-10 2 14 258.86 509.58 551.60 <
10 2 -14 258.64 392.70 565.66 <
-9 2 14 7197.84 7517.44 517.71 o
9 2 -14 7199.04 7816.64 455.41 o
-8 2 14 5965.43 6189.73 443.30 o
8 2 -14 5968.28 6470.23 404.65 o
-7 2 14 803.36 822.80 350.61 o
7 2 -14 803.15 888.25 322.52 o
-6 2 14 3511.82 3604.44 364.41 o
6 2 -14 3512.26 3295.89 318.51 o
-5 2 14 689.37 135.58 332.07 <
5 2 -14 684.58 402.05 280.64 <
-4 2 14 104.93 289.85 299.16 <
4 2 -14 104.84 46.75 275.83 <
-3 2 14 5627.21 5722.23 317.45 o
3 2 -14 5628.46 5006.95 311.34 o
-2 2 14 7591.12 8901.24 337.30 o
2 2 -14 7592.76 8859.17 323.23 o
-1 2 14 483.37 785.40 280.30 o
1 2 -14 483.52 359.98 289.90 <
0 2 14 1241.14 1365.11 294.38 o
0 2 -14 1240.49 1304.33 266.39 o
1 2 14 377.54 191.68 275.87 <
-1 2 -14 376.05 177.65 271.20 <
2 2 14 262.65 453.48 266.40 <
-2 2 -14 262.20 509.58 257.02 <
3 2 14 505.44 715.28 299.08 o
-3 2 -14 505.93 355.30 271.21 <
-13 3 14 308.62 411.40 593.71 <
13 3 -14 308.45 448.80 504.87 <
-12 3 14 433.58 1154.73 504.55 o
12 3 -14 433.73 818.13 439.29 <
-11 3 14 595.25 888.25 462.69 <
11 3 -14 594.72 794.75 420.66 <
-10 3 14 1081.20 1168.76 458.09 o
10 3 -14 1082.12 860.20 458.27 <
-9 3 14 978.15 1136.03 467.40 o
9 3 -14 978.08 1098.63 444.05 o
-8 3 14 2277.20 2524.51 443.76 o
8 3 -14 2278.18 2566.59 448.38 o
-7 3 14 1055.95 1079.93 397.36 o
7 3 -14 1057.54 673.20 350.86 <
-6 3 14 1627.54 1150.06 369.78 o
6 3 -14 1627.23 1439.91 313.47 o
-5 3 14 2920.05 3179.02 350.02 o
5 3 -14 2922.50 3211.74 317.14 o
-4 3 14 1298.33 1164.08 318.04 o
4 3 -14 1299.20 1084.61 266.72 o
-3 3 14 1210.09 832.15 276.18 o
3 3 -14 1209.71 570.35 266.98 o
-2 3 14 3580.58 3464.19 285.56 o
2 3 -14 3581.49 3567.04 275.88 o
-1 3 14 313.57 733.98 298.98 o
1 3 -14 313.54 523.60 271.06 <
0 3 14 864.77 1098.63 289.63 o
0 3 -14 864.83 776.05 275.90 o
1 3 14 1937.47 1916.76 266.52 o
-1 3 -14 1936.62 2173.89 303.44 o
2 3 14 143.77 271.15 280.47 <
-2 3 -14 143.81 748.00 261.46 o
3 3 14 209.42 378.68 219.66 <
-3 3 -14 209.77 626.45 444.01 <
-12 4 14 96.24 425.43 416.01 <
12 4 -14 96.75 154.28 434.77 <
-11 4 14 1336.32 1790.53 462.40 o
11 4 -14 1336.62 1178.11 416.20 o
-10 4 14 234.13 705.93 453.33 <
10 4 -14 234.68 523.60 416.00 <
-9 4 14 1429.72 1411.86 458.17 o
9 4 -14 1429.49 1309.01 383.46 o
-8 4 14 604.38 673.20 462.80 <
8 4 -14 605.04 972.41 434.59 o
-7 4 14 353.49 425.43 420.73 <
7 4 -14 353.30 635.80 392.60 <
-6 4 14 514.14 752.68 313.09 o
6 4 -14 514.40 542.30 444.12 <
-5 4 14 2801.78 3207.07 298.09 o
5 4 -14 2800.81 2356.21 458.80 o
-4 4 14 17.20 345.95 257.05 <
4 4 -14 17.35 434.78 434.70 <
-3 4 14 1615.66 1697.03 266.34 o
3 4 -14 1614.51 1192.13 449.14 o
-2 4 14 1066.93 1210.83 233.56 o
2 4 -14 1066.45 1687.68 401.44 o
-1 4 14 110.66 285.18 215.00 <
1 4 -14 110.98 411.40 378.61 <
0 4 14 270.01 663.85 205.43 o
0 4 -14 269.80 495.55 271.06 <
1 4 14 1095.98 1528.73 242.44 o
-1 4 -14 1095.96 1047.21 360.02 o
2 4 14 42.87 589.05 256.90 o
-2 4 -14 42.81 374.00 416.02 <
-11 5 14 72.12 336.60 411.36 <
11 5 -14 72.00 542.30 439.34 <
-10 5 14 28.22 350.63 462.78 <
10 5 -14 28.23 79.48 383.35 <
-9 5 14 236.61 677.88 401.90 <
9 5 -14 236.53 617.10 378.55 <
-8 5 14 89.05 88.83 462.83 <
8 5 -14 89.11 528.28 439.35 <
-7 5 14 24.03 -196.35 472.16 <
7 5 -14 24.01 266.48 448.78 <
-6 5 14 399.33 771.38 350.44 o
6 5 -14 398.92 261.80 430.13 <
-5 5 14 148.99 439.45 289.76 <
5 5 -14 148.78 453.48 373.92 <
-4 5 14 113.31 374.00 280.43 <
4 5 -14 113.23 345.95 378.63 <
-3 5 14 705.45 906.95 275.66 o
3 5 -14 705.73 925.66 411.28 o
-2 5 14 64.93 107.53 247.77 <
2 5 -14 65.15 715.28 397.16 <
-1 5 14 29.23 327.25 247.70 <
1 5 -14 29.31 257.13 397.35 <
0 5 14 281.13 448.80 243.03 <
0 5 -14 281.29 495.55 383.29 <
1 5 14 133.94 448.80 205.56 o
-1 5 -14 134.00 701.25 378.47 <
-9 6 14 1091.30 1089.28 462.83 o
9 6 -14 1091.01 1154.73 392.65 o
-8 6 14 4070.22 3412.77 482.85 o
8 6 -14 4071.50 3412.77 408.29 o
-7 6 14 244.62 355.30 406.70 <
7 6 -14 244.38 467.50 444.08 <
-6 6 14 325.52 378.68 416.07 <
6 6 -14 325.76 51.43 448.83 <
-5 6 14 287.26 378.68 294.50 <
5 6 -14 286.22 869.55 453.25 <
-4 6 14 59.67 187.00 247.76 <
4 6 -14 59.80 219.73 364.63 <
-3 6 14 747.81 762.03 271.14 o
3 6 -14 747.06 953.71 429.99 o
-2 6 14 4663.13 4544.12 290.35 o
2 6 -14 4663.63 4936.82 466.75 o
-1 6 14 167.75 322.58 294.49 <
1 6 -14 167.78 23.38 406.73 <
0 6 14 55.85 476.85 242.95 <
0 6 -14 55.69 378.68 397.32 <
-7 7 14 100.71 402.05 439.40 <
7 7 -14 100.65 705.93 443.94 <
-6 7 14 193.97 673.20 420.60 <
6 7 -14 193.94 850.85 425.17 <
-5 7 14 778.50 944.35 359.87 o
5 7 -14 778.39 762.03 402.06 <
-4 7 14 306.37 397.38 275.79 <
4 7 -14 306.14 509.58 434.72 <
-3 7 14 180.60 336.60 266.43 <
3 7 -14 180.87 565.68 397.26 <
-13 1 15 50.72 177.65 556.32 <
13 1 -15 50.63 205.70 411.39 <
-12 1 15 122.59 224.40 448.79 <
12 1 -15 122.89 322.58 420.72 <
-11 1 15 16.37 509.58 430.00 <
11 1 -15 16.32 56.10 369.33 <
-10 1 15 232.84 392.70 402.02 <
10 1 -15 232.32 420.75 350.58 <
-9 1 15 184.80 472.18 369.25 <
9 1 -15 184.48 336.60 313.19 <
-8 1 15 9865.13 10785.30 419.34 o
8 1 -15 9865.33 10766.60 367.21 o
-7 1 15 340.53 177.65 350.65 <
7 1 -15 341.15 172.98 299.24 <
-6 1 15 195.88 402.05 331.87 <
6 1 -15 195.76 102.85 289.86 <
-5 1 15 254.47 626.45 313.07 <
5 1 -15 254.08 425.43 271.09 <
-4 1 15 564.97 855.53 313.04 o
4 1 -15 564.59 635.80 261.76 o
-3 1 15 300.44 350.63 289.84 <
3 1 -15 300.58 60.78 280.53 <
-2 1 15 7704.48 8027.01 339.27 o
2 1 -15 7705.18 9237.85 325.83 o
-1 1 15 339.18 603.08 303.76 <
1 1 -15 339.58 448.80 261.76 <
0 1 15 125.22 303.88 280.46 <
0 1 -15 124.72 252.45 266.45 <
1 1 15 27.54 355.30 280.42 <
-1 1 -15 27.26 556.33 261.60 o
2 1 15 195.06 551.65 275.68 <
-2 1 -15 194.80 294.53 243.07 <
-12 2 15 190.00 561.00 486.11 <
12 2 -15 189.97 359.98 509.55 <
-11 2 15 74.71 920.98 485.91 <
11 2 -15 74.69 130.90 486.20 <
-10 2 15 117.26 140.25 509.58 <
10 2 -15 117.42 135.58 472.18 <
-9 2 15 485.34 537.63 420.73 <
9 2 -15 484.73 556.33 373.98 <
-8 2 15 142.14 177.65 369.32 <
8 2 -15 142.02 341.28 322.53 <
-7 2 15 446.07 617.10 341.20 <
7 2 -15 446.01 0.00 313.28 <
-6 2 15 424.75 701.25 345.82 o
6 2 -15 423.77 355.30 327.27 <
-5 2 15 143.49 88.83 303.88 <
5 2 -15 143.55 476.85 294.42 <
-4 2 15 375.95 299.20 308.57 <
4 2 -15 375.36 341.28 275.84 <
-3 2 15 491.34 612.43 308.49 <
3 2 -15 491.09 743.33 275.67 o
-2 2 15 104.37 168.30 294.52 <
2 2 -15 104.40 201.03 299.19 <
-1 2 15 375.55 598.40 294.42 o
1 2 -15 375.57 509.58 271.09 <
0 2 15 118.03 448.80 271.04 <
0 2 -15 118.15 289.85 266.44 <
1 2 15 61.57 336.60 280.44 <
-1 2 -15 61.40 182.33 275.81 <
2 2 15 169.45 579.70 294.36 <
-2 2 -15 169.66 776.05 298.89 o
-12 3 15 60.38 486.20 565.61 <
12 3 -15 60.40 163.63 509.57 <
-11 3 15 270.16 261.80 481.53 <
11 3 -15 270.66 687.23 425.28 <
-10 3 15 164.57 402.05 439.41 <
10 3 -15 164.39 257.13 406.71 <
-9 3 15 130.38 575.03 453.37 <
9 3 -15 130.14 523.60 430.01 <
-8 3 15 3767.23 4198.17 494.61 o
8 3 -15 3765.78 3272.52 403.17 o
-7 3 15 88.91 453.48 392.62 <
7 3 -15 89.36 102.85 341.28 <
-6 3 15 81.15 331.93 341.23 <
6 3 -15 81.32 224.40 322.56 <
-5 3 15 290.54 313.23 336.60 <
5 3 -15 291.88 289.85 299.20 <
-4 3 15 381.83 509.58 327.20 <
4 3 -15 381.24 364.65 317.91 <
-3 3 15 103.61 224.40 303.86 <
3 3 -15 103.64 -102.85 289.85 <
-2 3 15 2746.38 2515.16 323.07 o
2 3 -15 2745.79 2636.71 294.79 o
-1 3 15 29.11 -28.05 252.45 <
1 3 -15 29.24 144.93 266.46 <
0 3 15 118.96 476.85 271.02 <
0 3 -15 118.87 336.60 271.10 <
1 3 15 215.49 430.10 266.40 <
-1 3 -15 216.00 579.70 299.05 <
-11 4 15 33.53 243.10 462.81 <
11 4 -15 33.51 336.60 420.71 <
-10 4 15 99.68 383.35 434.73 <
10 4 -15 99.67 397.38 406.67 <
-9 4 15 15.83 201.03 448.79 <
9 4 -15 15.84 645.15 425.26 <
-8 4 15 121.40 331.93 392.66 <
8 4 -15 121.20 -37.40 374.00 <
-7 4 15 95.08 439.45 359.89 <
7 4 -15 95.43 252.45 453.46 <
-6 4 15 66.98 -93.50 322.57 <
6 4 -15 66.98 355.30 397.33 <
-5 4 15 70.74 243.10 285.15 <
5 4 -15 70.64 420.75 453.42 <
-4 4 15 304.82 523.60 247.67 o
4 4 -15 304.71 1112.66 443.72 o
-3 4 15 51.77 430.10 247.65 <
3 4 -15 51.82 640.48 364.46 <
-2 4 15 24.72 406.73 252.34 <
2 4 -15 24.76 -37.40 430.10 <
-1 4 15 144.00 317.90 243.05 <
1 4 -15 143.89 598.40 364.50 <
0 4 15 5.94 294.53 238.36 <
0 4 -15 5.91 645.15 415.90 <
-10 5 15 144.29 663.85 486.06 <
10 5 -15 143.99 780.73 453.26 <
-9 5 15 83.62 378.68 486.16 <
9 5 -15 83.48 303.88 462.80 <
-8 5 15 5217.74 5539.90 443.08 o
8 5 -15 5217.15 4941.50 491.63 o
-7 5 15 597.27 673.20 397.34 <
7 5 -15 597.56 51.43 318.01 <
-6 5 15 132.53 350.63 350.58 <
6 5 -15 132.57 416.08 430.05 <
-5 5 15 244.32 280.50 271.14 <
5 5 -15 244.31 654.50 378.53 <
-4 5 15 347.80 182.33 257.17 <
4 5 -15 347.68 458.15 444.10 <
-3 5 15 239.85 275.83 257.12 <
3 5 -15 239.80 233.75 313.23 <
-2 5 15 4088.01 4431.92 288.48 o
2 5 -15 4088.66 3347.32 455.04 o
-1 5 15 760.54 733.98 266.50 o
1 5 -15 761.12 799.43 434.76 <
-7 6 15 858.78 406.73 444.28 <
7 6 -15 859.08 1192.13 434.56 o
-6 6 15 664.80 476.85 434.84 <
6 6 -15 664.88 1079.93 434.54 o
-5 6 15 300.43 420.75 303.84 <
5 6 -15 300.28 84.15 303.91 <
-4 6 15 630.49 705.93 261.75 o
4 6 -15 630.35 1023.83 425.21 o
-3 6 15 858.05 715.28 280.61 o
3 6 -15 858.30 1093.96 397.22 o
-12 0 16 35.68 518.93 532.87 <
12 0 -16 35.49 196.35 448.79 <
-11 0 16 70.01 313.23 565.65 <
11 0 -16 70.43 303.88 495.52 <
-10 0 16 489.80 243.10 509.62 <
10 0 -16 488.87 504.90 462.82 <
-9 0 16 748.55 878.90 560.95 <
9 0 -16 748.23 715.28 411.42 <
-8 0 16 4264.43 4679.70 583.52 o
8 0 -16 4265.32 4497.37 466.92 o
-7 0 16 3322.98 2580.61 492.02 o
7 0 -16 3323.73 3188.37 477.10 o
-6 0 16 72.80 65.45 439.45 <
6 0 -16 73.13 593.73 392.55 <
-5 0 16 88.61 4.68 481.53 <
5 0 -16 89.07 140.25 411.40 <
-4 0 16 900.32 331.93 453.65 <
4 0 -16 898.54 551.65 397.53 <
-3 0 16 1642.10 1706.38 444.06 o
3 0 -16 1641.23 1379.13 392.96 o
-2 0 16 1418.08 1505.36 401.97 o
2 0 -16 1418.76 1547.43 364.51 o
-1 0 16 1887.43 1912.08 448.77 o
1 0 -16 1888.33 2103.76 429.83 o
0 0 16 160.37 472.18 387.95 <
0 0 -16 160.86 589.05 429.98 <
1 0 16 3.15 98.18 383.35 <
-1 0 -16 3.08 327.25 373.95 <
-12 1 16 145.35 416.08 514.21 <
12 1 -16 145.43 359.98 430.06 <
-11 1 16 111.21 294.53 416.05 <
11 1 -16 111.27 215.05 378.66 <
-10 1 16 1254.51 1510.03 411.17 o
10 1 -16 1254.44 1337.06 369.25 o
-9 1 16 291.71 425.43 350.59 <
9 1 -16 291.83 397.38 350.60 <
-8 1 16 162.81 266.48 327.23 <
8 1 -16 162.77 205.70 317.89 <
-7 1 16 2342.95 2454.39 355.10 o
7 1 -16 2343.68 2258.04 313.39 o
-6 1 16 183.73 430.10 327.18 <
6 1 -16 183.64 14.03 299.21 <
-5 1 16 221.91 247.78 317.90 <
5 1 -16 221.79 154.28 266.49 <
-4 1 16 2557.68 2501.14 318.02 o
4 1 -16 2558.48 2533.86 285.23 o
-3 1 16 135.53 336.60 317.86 <
3 1 -16 135.44 453.48 275.72 <
-2 1 16 143.00 266.48 275.80 <
2 1 -16 143.00 215.05 294.51 <
-1 1 16 1764.58 1790.53 317.86 o
1 1 -16 1764.71 1659.63 290.02 o
0 1 16 62.56 345.95 252.38 <
0 1 -16 62.62 261.80 266.44 <
-11 2 16 189.48 448.80 514.20 <
11 2 -16 190.37 467.50 467.44 <
-10 2 16 22.01 313.23 444.09 <
10 2 -16 22.21 439.45 430.02 <
-9 2 16 1232.28 1486.66 420.53 o
9 2 -16 1231.39 1538.08 387.72 o
-8 2 16 2243.63 2515.16 373.53 o
8 2 -16 2242.62 2613.34 354.61 o
-7 2 16 1179.16 1276.28 364.56 o
7 2 -16 1179.40 1626.91 336.08 o
-6 2 16 139.36 215.05 331.92 <
6 2 -16 140.11 392.70 285.10 <
-5 2 16 288.08 402.05 322.54 <
5 2 -16 288.94 28.05 289.88 <
-4 2 16 64.12 238.43 327.23 <
4 2 -16 64.48 116.88 313.22 <
-3 2 16 1638.39 2253.36 340.29 o
3 2 -16 1638.05 1968.18 293.97 o
-2 2 16 1059.11 995.78 271.21 o
2 2 -16 1058.80 1294.98 294.27 o
-1 2 16 1058.01 1234.21 308.37 o
1 2 -16 1057.44 911.63 299.33 o
0 2 16 200.56 177.65 294.53 <
0 2 -16 201.04 238.43 285.17 <
-11 3 16 87.35 495.55 518.85 <
11 3 -16 87.34 458.15 467.43 <
-10 3 16 302.65 514.25 472.12 <
10 3 -16 302.53 561.00 434.70 <
-9 3 16 35.10 402.05 458.09 <
9 3 -16 34.86 -74.80 411.40 <
-8 3 16 219.64 762.03 397.17 <
8 3 -16 219.90 551.65 415.98 <
-7 3 16 412.24 827.48 355.09 o
7 3 -16 411.66 981.76 340.92 o
-6 3 16 70.93 46.75 345.95 <
6 3 -16 70.91 369.33 322.51 <
-5 3 16 164.76 425.43 369.26 <
5 3 -16 164.89 285.18 289.82 <
-4 3 16 586.50 935.01 331.70 o
4 3 -16 586.11 757.35 313.12 o
-3 3 16 6.89 112.20 331.92 <
3 3 -16 6.88 289.85 308.50 <
-2 3 16 220.65 462.83 289.77 <
2 3 -16 220.57 229.08 261.80 <
-1 3 16 524.82 743.33 275.68 o
1 3 -16 524.89 1033.18 303.49 o
-10 4 16 390.55 46.75 383.39 <
10 4 -16 390.19 420.75 411.39 <
-9 4 16 329.77 313.23 420.76 <
9 4 -16 329.36 504.90 397.32 <
-8 4 16 1604.53 1982.21 462.42 o
8 4 -16 1603.76 1729.76 439.32 o
-7 4 16 2455.52 2276.74 360.29 o
7 4 -16 2457.00 2440.36 453.50 o
-6 4 16 283.08 467.50 299.14 <
6 4 -16 283.30 285.18 383.35 <
-5 4 16 69.15 532.95 270.98 <
5 4 -16 69.46 486.20 444.04 <
-4 4 16 594.57 537.63 261.83 o
4 4 -16 594.17 757.35 439.38 <
-3 4 16 664.21 748.00 257.06 o
3 4 -16 664.04 257.13 397.48 <
-2 4 16 490.83 911.63 270.83 o
2 4 -16 490.31 691.90 444.05 <
-7 5 16 1544.49 1224.86 495.78 o
7 5 -16 1545.09 1005.13 388.47 o
-6 5 16 80.35 378.68 331.86 <
6 5 -16 80.46 556.33 434.66 <
-5 5 16 280.77 383.35 280.47 <
5 5 -16 280.63 481.53 448.75 <
-4 5 16 1417.53 1159.41 294.82 o
4 5 -16 1417.33 1061.23 392.99 o
-10 1 17 330.85 645.15 373.88 <
10 1 -17 331.03 621.78 345.83 <
-9 1 17 528.18 757.35 383.24 <
9 1 -17 527.38 462.83 313.25 <
-8 1 17 5.41 308.55 387.98 <
8 1 -17 5.43 317.90 327.20 <
-7 1 17 1604.86 1631.58 369.30 o
7 1 -17 1604.50 1640.93 331.88 o
-6 1 17 1384.78 1706.38 336.19 o
6 1 -17 1385.61 1351.08 303.92 o
-5 1 17 215.30 392.70 331.88 <
5 1 -17 215.60 514.25 280.38 <
-4 1 17 409.46 841.50 322.33 o
4 1 -17 409.29 705.93 289.69 o
-3 1 17 435.93 1047.21 317.47 o
3 1 -17 435.07 738.65 275.64 o
-2 1 17 89.28 285.18 289.81 <
2 1 -17 89.24 682.55 294.27 o
-10 2 17 7.27 486.20 472.09 <
10 2 -17 7.28 215.05 462.81 <
-9 2 17 31.57 317.90 378.63 <
9 2 -17 31.63 383.35 369.26 <
-8 2 17 6.40 448.80 341.17 <
8 2 -17 6.37 308.55 331.88 <
-7 2 17 2.51 102.85 336.60 <
7 2 -17 2.52 364.65 322.50 <
-6 2 17 44.88 523.60 350.49 <
6 2 -17 44.93 285.18 299.16 <
-5 2 17 1.96 383.35 341.20 <
5 2 -17 1.94 565.68 294.33 <
-4 2 17 6.80 154.28 322.56 <
4 2 -17 6.80 215.05 299.17 <
-3 2 17 47.95 336.60 313.17 <
3 2 -17 47.94 364.65 294.45 <
-2 2 17 22.84 804.10 312.86 o
2 2 -17 22.88 135.58 280.49 <
-9 3 17 385.78 504.90 453.45 <
9 3 -17 384.56 149.60 439.48 <
-8 3 17 42.72 425.43 397.30 <
8 3 -17 42.58 504.90 425.33 <
-7 3 17 1968.96 2239.34 368.91 o
7 3 -17 1968.63 2085.06 327.06 o
-6 3 17 2092.82 1837.28 379.02 o
6 3 -17 2094.38 1650.28 337.23 o
-5 3 17 232.11 462.83 341.21 <
5 3 -17 231.91 215.05 317.90 <
-4 3 17 684.74 677.88 336.61 o
4 3 -17 684.66 1047.21 312.94 o
-3 3 17 332.53 752.68 345.75 o
3 3 -17 331.13 229.08 327.27 <
-8 0 18 299.45 785.40 500.07 <
8 0 -18 299.16 294.53 486.20 <
-7 0 18 163.54 467.50 495.49 <
7 0 -18 163.33 130.90 458.15 <
-6 0 18 2897.31 3599.77 583.30 o
6 0 -18 2896.46 2870.46 528.32 o
-5 0 18 133.78 621.78 486.08 <
5 0 -18 134.09 378.68 420.71 <
-7 1 18 25.75 518.93 369.20 <
7 1 -18 25.71 266.48 317.86 <
-6 1 18 591.38 696.58 373.95 <
6 1 -18 591.34 864.88 336.43 o
-5 1 18 28.39 537.63 355.16 <
5 1 -18 28.34 317.90 317.85 <

loop_
_twin_refln_datum_id
_twin_refln_individual_id
_twin_refln_index_h
_twin_refln_index_k
_twin_refln_index_l
_twin_refln_F_squared_calc
_twin_refln_F_squared_meas
_twin_refln_F_squared_sigma
_twin_refln_include_status
? ? ? ? ? ? ? ? ?
