####################################################################### 
# 
# This file contains crystal structure data downloaded from the 
# Cambridge Structural Database (CSD) hosted by the Cambridge 
# Crystallographic Data Centre (CCDC).
# 
# Full information about CCDC data access policies and citation 
# guidelines are available at http://www.ccdc.cam.ac.uk/access/V1 
# 
# Audit and citation data items may have been added by the CCDC. 
# Please retain this information to preserve the provenance of 
# this file and to allow appropriate attribution of the data. 
# 
#######################################################################

data_2b.EASnI3-125K
_audit_block_doi                 10.5517/ccdc.csd.cc1ncdyc
_database_code_depnum_ccdc_archive 'CCDC 1530313'
loop_
_citation_id
_citation_doi
_citation_year
1 10.1021/acs.inorgchem.6b02764 2017
_audit_update_record             
;
2017-01-30 deposited with the CCDC.	2022-09-05 downloaded from the CCDC.
;
#=======================================================================

# 5. CHEMICAL DATA

_chemical_name_systematic        
; ?
;
_chemical_name_common            'Ethylammonium Tin Iodide'
_chemical_formula_moiety         (CH3CH2NH3)SnI3
_chemical_formula_structural     ?
_chemical_formula_analytical     ?
_chemical_formula_iupac          ?
_chemical_formula_sum            'C2 H8 I3 N1 Sn1'
_chemical_formula_weight         545.5
_chemical_melting_point          ?
_chemical_compound_source        ?
_chemical_absolute_configuration ?

#=======================================================================

# 6. CRYSTAL DATA

_symmetry_cell_setting           orthorhombic
_symmetry_space_group_name_H-M   'P c a 21'
_symmetry_space_group_name_Hall  'P 2c -2ac'
_symmetry_Int_Tables_number      29

loop_
_space_group_symop_id
_space_group_symop_operation_xyz
1 x,y,z
2 -x,-y,z+1/2
3 x+1/2,-y,z
4 -x+1/2,y,z+1/2

_cell_length_a                   30.7151(15)
_cell_length_b                   8.7898(4)
_cell_length_c                   23.0047(15)
_cell_angle_alpha                90
_cell_angle_beta                 90
_cell_angle_gamma                90
_cell_volume                     6210.8(6)

loop_
_twin_individual_id
_twin_individual_mass_fraction_refined
_twin_individual_twin_matrix_11
_twin_individual_twin_matrix_12
_twin_individual_twin_matrix_13
_twin_individual_twin_matrix_21
_twin_individual_twin_matrix_22
_twin_individual_twin_matrix_23
_twin_individual_twin_matrix_31
_twin_individual_twin_matrix_32
_twin_individual_twin_matrix_33
1 0.8233(14) 1 0 0 0 1 0 0 0 1
2 0.1767(14) -0.5 0.25 0 3 0.5 0 0 0 -1

_cell_formula_units_Z            24

_cell_measurement_reflns_used    22494
_cell_measurement_theta_min      1.77
_cell_measurement_theta_max      24.73
_cell_measurement_temperature    125
_cell_special_details            
; ?
;

_exptl_crystal_density_diffrn    3.5004
_exptl_crystal_density_meas      ?
_exptl_crystal_density_method    ?
_exptl_crystal_F_000             5664

_exptl_absorpt_coefficient_mu    11.341
_exptl_crystal_description       'Hexagonal needle'
_exptl_crystal_size_max          0.0725
_exptl_crystal_size_mid          0.0599
_exptl_crystal_size_min          0.0335
_exptl_crystal_size_rad          ?
_exptl_crystal_colour            ' Deep Red'
_exptl_absorpt_process_details   X-SHAPE'
_exptl_absorpt_correction_type   integration
_exptl_absorpt_correction_T_min  0.3330
_exptl_absorpt_correction_T_max  0.5877
loop_
_exptl_crystal_face_index_h
_exptl_crystal_face_index_k
_exptl_crystal_face_index_l
_exptl_crystal_face_perp_dist
? ? ? ?

#=======================================================================

# 7. EXPERIMENTAL DATA

_exptl_special_details           ?

_diffrn_ambient_temperature      125
_diffrn_measurement_device       '2-circle goniometer'
_diffrn_measurement_device_type  'STOE IPDS 2'
_diffrn_detector                 'image plate (34 cm diameter)'
_diffrn_detector_type            STOE
_diffrn_detector_area_resol_mean 6.67
_diffrn_source                   
'sealed X-ray tube, 12 x 0.4 mm long-fine focus'
_diffrn_source_voltage           50
_diffrn_source_current           40
_diffrn_source_power             1.20
_diffrn_radiation_type           'Mo K\a'
_diffrn_radiation_wavelength     0.71073
_diffrn_radiation_monochromator  'plane graphite'
_diffrn_radiation_polarisn_norm  0
_diffrn_radiation_collimation    '0.5 mm diameter, monocapillary'
_diffrn_measurement_method       'rotation method'
_diffrn_measurement_details      
; 180 frames, detector distance = 100 mm
;


_diffrn_reflns_number            50096
_diffrn_reflns_theta_min         1.59
_diffrn_reflns_theta_max         25.42
_diffrn_reflns_theta_full        29.42
_diffrn_measured_fraction_theta_max 0.96
_diffrn_measured_fraction_theta_full 0.98
_diffrn_reflns_av_R_equivalents  0.1006
_diffrn_reflns_av_unetI/netI     0.1114
_diffrn_reflns_limit_h_min       -42
_diffrn_reflns_limit_h_max       41
_diffrn_reflns_limit_k_min       -10
_diffrn_reflns_limit_k_max       11
_diffrn_reflns_limit_l_min       -30
_diffrn_reflns_limit_l_max       31
_diffrn_reflns_reduction_process ?

_diffrn_standards_number         ?
_diffrn_standards_interval_count ?
_diffrn_standards_interval_time  ?
_diffrn_standards_decay_%        ?
loop_
_diffrn_standard_refln_index_h
_diffrn_standard_refln_index_k
_diffrn_standard_refln_index_l
? ? ?

_diffrn_radiation_probe          X-ray

#=======================================================================

# 8. REFINEMENT DATA

_refine_special_details          
; 
 Carbon and Nitrogen atoms were refined isotropically due to the 
  heavily disordered nature of the cations. The C-C and the C-N
  bond distances and the C-N-N bonnd angles were restrained to
  1.500(1) Angstrom and 108.00(1) degrees, respectively. The thermal
  parameters of the EA molecules were restrained so that each cation
  has the same Uiso.
;
_reflns_number_total             13206
_reflns_number_gt                9949
_reflns_threshold_expression     I>2\s(I)

_refine_ls_structure_factor_coef Fsqd
_refine_ls_R_factor_gt           0.0704
_refine_ls_wR_factor_gt          0.1006
_refine_ls_R_factor_all          0.0958
_refine_ls_wR_factor_ref         0.1055
_refine_ls_goodness_of_fit_ref   1.32
_refine_ls_goodness_of_fit_gt    1.46
_refine_ls_restrained_S_gt       ?
_refine_ls_restrained_S_all      ?
_refine_ls_number_reflns         13206
_refine_ls_number_parameters     278
_refine_ls_number_restraints     18
_refine_ls_number_constraints    205
_refine_ls_weighting_scheme      sigma
_refine_ls_weighting_details     w=1/(\s^2^(I)+0.0004I^2^)
_refine_ls_hydrogen_treatment    constr
_refine_ls_shift/su_max          0.0391
_refine_ls_shift/su_mean         0.0022
_refine_diff_density_max         2.63
_refine_diff_density_min         -2.82
_refine_ls_extinction_method     none
_refine_ls_extinction_coef       ?
_refine_ls_abs_structure_details 
;  6331 of Friedel pairs used in the refinement
;
_refine_ls_abs_structure_Flack   ?
_refine_ls_abs_structure_Rogers  ?

loop_
_atom_type_symbol
_atom_type_scat_dispersion_real
_atom_type_scat_dispersion_imag
_atom_type_scat_source
C 0.0033 0.0016 'International Tables Vol C tables 4.2.6.8 and 6.1.1.1'
H 0.0000 0.0000 'International Tables Vol C tables 4.2.6.8 and 6.1.1.1'
I -0.4742 1.8119 'International Tables Vol C tables 4.2.6.8 and 6.1.1.1'
N 0.0061 0.0033 'International Tables Vol C tables 4.2.6.8 and 6.1.1.1'
Sn -0.6537 1.4246 'International Tables Vol C tables 4.2.6.8 and 6.1.1.1'

_computing_data_collection       'STOE X-AREA'
_computing_cell_refinement       'STOE X-AREA'
_computing_data_reduction        'STOE X-RED'
_computing_structure_solution    Superflip
_computing_structure_refinement  Jana2006
_computing_molecular_graphics    ?
_computing_publication_material  ?

loop_
_restr_distance_atom_site_label_1
_restr_distance_site_symmetry_1
_restr_distance_atom_site_label_2
_restr_distance_site_symmetry_2
_restr_distance_target
_restr_distance_target_weight_param
N1 . C1 . 1.5 0.001
C1 . C2 . 1.5 0.001
N2 . C3 . 1.5 0.001
C3 . C4 . 1.5 0.001
N3 . C5 . 1.5 0.001
C5 . C6 . 1.5 0.001
N4 . C7 . 1.5 0.001
C7 . C8 . 1.5 0.001
N5 . C9 . 1.5 0.001
C9 . C10 . 1.5 0.001
N6 . C11 . 1.5 0.001
C11 . C12 . 1.5 0.001

loop_
_restr_angle_atom_site_label_1
_restr_angle_site_symmetry_1
_restr_angle_atom_site_label_2
_restr_angle_site_symmetry_2
_restr_angle_atom_site_label_3
_restr_angle_site_symmetry_3
_restr_angle_target
_restr_angle_target_weight_param
N1 . C1 . C2 . 108 0.01
N2 . C3 . C4 . 108 0.01
N3 . C5 . C6 . 108 0.01
N4 . C7 . C8 . 108 0.01
N5 . C9 . C10 . 108 0.01
N6 . C11 . C12 . 108 0.01

loop_
_restr_torsion_atom_site_label_1
_restr_torsion_site_symmetry_1
_restr_torsion_atom_site_label_2
_restr_torsion_site_symmetry_2
_restr_torsion_atom_site_label_3
_restr_torsion_site_symmetry_3
_restr_torsion_atom_site_label_4
_restr_torsion_site_symmetry_4
_restr_torsion_angle_target
_restr_torsion_weight_param
? ? ? ? ? ? ? ? ? ?

loop_
_restr_equal_distance_atom_site_label_1
_restr_equal_distance_site_symmetry_1
_restr_equal_distance_atom_site_label_2
_restr_equal_distance_site_symmetry_2
_restr_equal_distance_class_class_id
_restr_equal_distance_class_target_weight_param
? ? ? ? ? ?

loop_
_restr_equal_angle_atom_site_label_1
_restr_equal_angle_site_symmetry_1
_restr_equal_angle_atom_site_label_2
_restr_equal_angle_site_symmetry_2
_restr_equal_angle_atom_site_label_3
_restr_equal_angle_site_symmetry_3
_restr_equal_angle_class_class_id
_restr_equal_angle_class_target_weight_param
? ? ? ? ? ? ? ?

loop_
_restr_equal_torsion_atom_site_label_1
_restr_equal_torsion_site_symmetry_1
_restr_equal_torsion_atom_site_label_2
_restr_equal_torsion_site_symmetry_2
_restr_equal_torsion_atom_site_label_3
_restr_equal_torsion_site_symmetry_3
_restr_equal_torsion_atom_site_label_4
_restr_equal_torsion_site_symmetry_4
_restr_equal_torsion_class_class_id
_restr_equal_torsion_class_target_weight_param
? ? ? ? ? ? ? ? ? ?


#=======================================================================

# 9. ATOMIC COORDINATES AND DISPLACEMENT PARAMETERS

loop_
_atom_site_label
_atom_site_type_symbol
_atom_site_fract_x
_atom_site_fract_y
_atom_site_fract_z
_atom_site_adp_type
_atom_site_U_iso_or_equiv
_atom_site_site_symmetry_multiplicity
_atom_site_occupancy
_atom_site_calc_flag
_atom_site_refinement_flags
_atom_site_disorder_assembly
_atom_site_disorder_group
Sn1 Sn 0.33530(6) 0.4652(2) 0.42149(8) Uani 0.0252(6) 4 1 d . . .
Sn2 Sn 0.00417(6) 0.4874(3) 0.25769(10) Uani 0.0269(6) 4 1 d . . .
Sn3 Sn 0.25271(6) -0.0346(2) 0.25671(9) Uani 0.0260(6) 4 1 d . . .
Sn4 Sn -0.08416(6) 0.0097(3) -0.07838(9) Uani 0.0271(6) 4 1 d . . .
Sn5 Sn 0.17159(6) 0.4618(2) 0.09407(9) Uani 0.0264(6) 4 1 d . . .
Sn6 Sn -0.08003(6) -0.0105(3) 0.09572(9) Uani 0.0287(6) 4 1 d . . .
I1 I 0.09049(5) 0.4602(2) 0.16984(8) Uani 0.0309(6) 4 1 d . . .
I2 I -0.15834(6) 0.0032(2) 0.17997(9) Uani 0.0354(7) 4 1 d . . .
I3 I 0.12606(5) 0.2237(2) 0.01873(9) Uani 0.0346(6) 4 1 d . . .
I4 I -0.05565(6) -0.2413(2) -0.15410(9) Uani 0.0378(7) 4 1 d . . .
I5 I 0.30492(6) 0.2180(2) 0.33534(8) Uani 0.0331(6) 4 1 d . . .
I6 I -0.13017(5) -0.2019(2) 0.00205(9) Uani 0.0347(6) 4 1 d . . .
I7 I 0.29327(6) 0.7104(3) 0.34598(9) Uani 0.0372(7) 4 1 d . . .
I8 I -0.07545(6) 0.5008(3) 0.33409(9) Uani 0.0408(7) 4 1 d . . .
I9 I -0.02867(5) 0.1806(2) 0.19109(9) Uani 0.0338(6) 4 1 d . . .
I10 I 0.21088(5) 0.2061(2) 0.18298(9) Uani 0.0345(6) 4 1 d . . .
I11 I 0.17774(7) 0.0051(3) 0.34227(10) Uani 0.0459(8) 4 1 d . . .
I12 I 0.36077(5) 0.7178(2) 0.51659(8) Uani 0.0320(6) 4 1 d . . .
I13 I -0.10816(6) 0.2700(2) 0.03733(9) Uani 0.0389(7) 4 1 d . . .
I14 I -0.00370(6) -0.0109(3) -0.00394(8) Uani 0.0371(7) 4 1 d . . .
I15 I -0.04481(5) 0.6574(2) 0.16455(8) Uani 0.0311(6) 4 1 d . . .
I16 I 0.21580(6) -0.2962(2) 0.18740(10) Uani 0.0413(7) 4 1 d . . .
I17 I 0.25334(5) 0.4206(2) 0.48843(9) Uani 0.0356(6) 4 1 d . . .
I18 I 0.04000(6) 0.7741(3) 0.31206(9) Uani 0.0408(7) 4 1 d . . .
N1 N -0.1803(7) 0.544(3) 0.1300(8) Uiso 0.044(4) 4 1 d . . .
N2 N -0.0104(9) 0.510(4) -0.0351(10) Uiso 0.066(6) 4 1 d . . .
N3 N -0.0789(10) -0.092(4) 0.2979(10) Uiso 0.071(6) 4 1 d . . .
N4 N 0.2007(7) 0.435(3) 0.3203(11) Uiso 0.059(5) 4 1 d . . .
N5 N 0.0670(7) -0.081(3) 0.1352(9) Uiso 0.046(4) 4 1 d . . .
N6 N 0.2395(13) 0.925(4) 0.5549(12) Uiso 0.097(8) 4 1 d . . .
C1 C -0.1702(8) 0.532(3) 0.1937(7) Uiso 0.044(4) 4 1 d . . .
C2 C -0.1359(8) 0.412(3) 0.2014(11) Uiso 0.044(4) 4 1 d . . .
C3 C 0.0192(9) 0.515(3) 0.0168(11) Uiso 0.066(6) 4 1 d . . .
C4 C 0.0082(12) 0.382(4) 0.0550(12) Uiso 0.066(6) 4 1 d . . .
C5 C -0.0714(11) -0.068(3) 0.3617(10) Uiso 0.071(6) 4 1 d . . .
C6 C -0.0905(13) 0.083(4) 0.3781(13) Uiso 0.071(6) 4 1 d . . .
C7 C 0.1575(7) 0.512(4) 0.3277(10) Uiso 0.059(5) 4 1 d . . .
C8 C 0.1532(9) 0.558(4) 0.3902(11) Uiso 0.059(5) 4 1 d . . .
C9 C 0.1059(6) -0.071(3) 0.1744(10) Uiso 0.046(4) 4 1 d . . .
C10 C 0.0979(9) 0.055(3) 0.2172(11) Uiso 0.046(4) 4 1 d . . .
C11 C 0.2371(12) 0.899(5) 0.4905(13) Uiso 0.097(8) 4 1 d . . .
C12 C 0.2714(13) 0.995(5) 0.4621(16) Uiso 0.097(8) 4 1 d . . .
H1n1 H -0.198022 0.619191 0.124113 Uiso 0.0527 4 1 d . . .
H2n1 H -0.156325 0.558687 0.110693 Uiso 0.0527 4 1 d . . .
H3n1 H -0.192389 0.459477 0.118335 Uiso 0.0527 4 1 d . . .
H1n2 H -0.003842 0.584306 -0.05859 Uiso 0.0788 4 1 d . . .
H2n2 H -0.007311 0.423804 -0.052968 Uiso 0.0788 4 1 d . . .
H3n2 H -0.037282 0.520125 -0.023673 Uiso 0.0788 4 1 d . . .
H1n3 H -0.058241 -0.148294 0.283738 Uiso 0.0856 4 1 d . . .
H2n3 H -0.10388 -0.136209 0.29265 Uiso 0.0856 4 1 d . . .
H3n3 H -0.078935 -0.004033 0.280236 Uiso 0.0856 4 1 d . . .
H1n4 H 0.201502 0.389796 0.286684 Uiso 0.0705 4 1 d . . .
H2n4 H 0.221417 0.50268 0.321991 Uiso 0.0705 4 1 d . . .
H3n4 H 0.204278 0.368604 0.347796 Uiso 0.0705 4 1 d . . .
H1n5 H 0.073003 -0.140236 0.105957 Uiso 0.0554 4 1 d . . .
H2n5 H 0.045096 -0.118131 0.154478 Uiso 0.0554 4 1 d . . .
H3n5 H 0.060408 0.00921 0.122406 Uiso 0.0554 4 1 d . . .
H1n6 H 0.223783 0.857324 0.572714 Uiso 0.1169 4 1 d . . .
H2n6 H 0.266435 0.917533 0.566257 Uiso 0.1169 4 1 d . . .
H3n6 H 0.22974 1.01555 0.56293 Uiso 0.1169 4 1 d . . .
H1c1 H -0.195939 0.503177 0.214467 Uiso 0.0527 4 1 d . . .
H2c1 H -0.159278 0.628109 0.207328 Uiso 0.0527 4 1 d . . .
H1c2 H -0.134806 0.382031 0.241493 Uiso 0.0527 4 1 d . . .
H2c2 H -0.142774 0.325825 0.177701 Uiso 0.0527 4 1 d . . .
H3c2 H -0.108079 0.452561 0.190072 Uiso 0.0527 4 1 d . . .
H1c3 H 0.014575 0.607881 0.037764 Uiso 0.0788 4 1 d . . .
H2c3 H 0.048896 0.506778 0.004098 Uiso 0.0788 4 1 d . . .
H1c4 H 0.009147 0.413369 0.094988 Uiso 0.0788 4 1 d . . .
H2c4 H -0.020441 0.346059 0.045777 Uiso 0.0788 4 1 d . . .
H3c4 H 0.028974 0.30211 0.048771 Uiso 0.0788 4 1 d . . .
H1c5 H -0.085673 -0.147017 0.383177 Uiso 0.0856 4 1 d . . .
H2c5 H -0.040688 -0.067272 0.36941 Uiso 0.0856 4 1 d . . .
H1c6 H -0.093183 0.08936 0.419566 Uiso 0.0856 4 1 d . . .
H2c6 H -0.071843 0.163283 0.364482 Uiso 0.0856 4 1 d . . .
H3c6 H -0.118747 0.093689 0.360608 Uiso 0.0856 4 1 d . . .
H1c7 H 0.1346 0.442837 0.317805 Uiso 0.0705 4 1 d . . .
H2c7 H 0.156428 0.60141 0.303482 Uiso 0.0705 4 1 d . . .
H1c8 H 0.131027 0.634851 0.39377 Uiso 0.0705 4 1 d . . .
H2c8 H 0.145357 0.471305 0.413081 Uiso 0.0705 4 1 d . . .
H3c8 H 0.180435 0.598539 0.403752 Uiso 0.0705 4 1 d . . .
H1c9 H 0.109534 -0.164883 0.194851 Uiso 0.0554 4 1 d . . .
H2c9 H 0.131316 -0.0473 0.151708 Uiso 0.0554 4 1 d . . .
H1c10 H 0.100632 0.016164 0.255993 Uiso 0.0554 4 1 d . . .
H2c10 H 0.118882 0.134672 0.211274 Uiso 0.0554 4 1 d . . .
H3c10 H 0.069121 0.095027 0.211656 Uiso 0.0554 4 1 d . . .
H1c11 H 0.208892 0.928926 0.476546 Uiso 0.1169 4 1 d . . .
H2c11 H 0.242546 0.793598 0.48229 Uiso 0.1169 4 1 d . . .
H1c12 H 0.257756 1.070421 0.438051 Uiso 0.1169 4 1 d . . .
H2c12 H 0.288582 1.044104 0.491425 Uiso 0.1169 4 1 d . . .
H3c12 H 0.28979 0.93158 0.438578 Uiso 0.1169 4 1 d . . .

loop_
_atom_site_aniso_label
_atom_site_aniso_type_symbol
_atom_site_aniso_U_11
_atom_site_aniso_U_22
_atom_site_aniso_U_33
_atom_site_aniso_U_12
_atom_site_aniso_U_13
_atom_site_aniso_U_23
Sn1 Sn 0.0266(9) 0.0235(13) 0.0256(11) -0.0012(8) -0.0005(8) -0.0023(9)
Sn2 Sn 0.0223(9) 0.0226(12) 0.0357(11) 0.0007(7) 0.0003(8) -0.0004(10)
Sn3 Sn 0.0256(9) 0.0197(11) 0.0327(11) -0.0014(8) 0.0003(8) 0.0015(10)
Sn4 Sn 0.0277(9) 0.0247(13) 0.0288(11) 0.0007(8) 0.0013(8) -0.0027(10)
Sn5 Sn 0.0233(9) 0.0281(13) 0.0278(11) 0.0004(8) -0.0003(7) 0.0007(10)
Sn6 Sn 0.0281(9) 0.0229(12) 0.0351(12) 0.0001(8) -0.0006(8) -0.0006(10)
I1 I 0.0255(8) 0.0312(12) 0.0359(12) 0.0004(7) 0.0014(7) -0.0036(9)
I2 I 0.0305(9) 0.0327(12) 0.0430(13) -0.0040(8) 0.0079(8) 0.0019(10)
I3 I 0.0360(9) 0.0277(11) 0.0400(12) -0.0084(8) -0.0003(8) -0.0062(10)
I4 I 0.0439(9) 0.0329(13) 0.0368(11) 0.0056(8) 0.0054(9) -0.0060(10)
I5 I 0.0386(9) 0.0278(12) 0.0328(11) -0.0019(8) 0.0019(8) -0.0007(9)
I6 I 0.0347(9) 0.0326(11) 0.0366(12) -0.0106(8) 0.0043(8) -0.0023(10)
I7 I 0.0377(9) 0.0304(13) 0.0434(13) 0.0041(8) -0.0079(9) 0.0009(11)
I8 I 0.0320(10) 0.0443(14) 0.0462(14) 0.0005(9) 0.0102(8) 0.0060(11)
I9 I 0.0316(8) 0.0267(12) 0.0430(12) -0.0032(7) -0.0063(8) 0.0006(10)
I10 I 0.0313(8) 0.0279(12) 0.0443(12) 0.0011(8) -0.0042(8) 0.0104(10)
I11 I 0.0313(10) 0.0581(16) 0.0484(13) 0.0048(9) 0.0123(9) 0.0106(13)
I12 I 0.0343(8) 0.0257(10) 0.0360(12) -0.0059(7) -0.0026(8) 0.0032(10)
I13 I 0.0457(10) 0.0292(13) 0.0417(12) 0.0073(8) -0.0006(8) 0.0055(10)
I14 I 0.0252(9) 0.0507(14) 0.0354(13) 0.0005(8) -0.0041(7) -0.0072(11)
I15 I 0.0282(8) 0.0260(11) 0.0392(11) 0.0014(7) -0.0047(8) 0.0028(9)
I16 I 0.0430(9) 0.0270(12) 0.0540(14) -0.0040(9) -0.0141(9) -0.0037(11)
I17 I 0.0240(8) 0.0447(13) 0.0380(11) -0.0025(8) 0.0017(8) -0.0008(9)
I18 I 0.0431(10) 0.0352(13) 0.0442(13) -0.0116(9) -0.0003(9) -0.0056(10)

loop_
_jana_atom_site_ADP_C_label
_jana_atom_site_ADP_C_type_symbol
_jana_atom_site_ADP_C_111
_jana_atom_site_ADP_C_112
_jana_atom_site_ADP_C_113
_jana_atom_site_ADP_C_122
_jana_atom_site_ADP_C_123
_jana_atom_site_ADP_C_133
_jana_atom_site_ADP_C_222
_jana_atom_site_ADP_C_223
_jana_atom_site_ADP_C_233
_jana_atom_site_ADP_C_333
? ? ? ? ? ? ? ? ? ? ? ?

loop_
_jana_atom_site_ADP_D_label
_jana_atom_site_ADP_D_type_symbol
_jana_atom_site_ADP_D_1111
_jana_atom_site_ADP_D_1112
_jana_atom_site_ADP_D_1113
_jana_atom_site_ADP_D_1122
_jana_atom_site_ADP_D_1123
_jana_atom_site_ADP_D_1133
_jana_atom_site_ADP_D_1222
_jana_atom_site_ADP_D_1223
_jana_atom_site_ADP_D_1233
_jana_atom_site_ADP_D_1333
_jana_atom_site_ADP_D_2222
_jana_atom_site_ADP_D_2223
_jana_atom_site_ADP_D_2233
_jana_atom_site_ADP_D_2333
_jana_atom_site_ADP_D_3333
? ? ? ? ? ? ? ? ? ? ? ? ? ? ? ? ?

loop_
_jana_atom_site_ADP_E_label
_jana_atom_site_ADP_E_type_symbol
_jana_atom_site_ADP_E_11111
_jana_atom_site_ADP_E_11112
_jana_atom_site_ADP_E_11113
_jana_atom_site_ADP_E_11122
_jana_atom_site_ADP_E_11123
_jana_atom_site_ADP_E_11133
_jana_atom_site_ADP_E_11222
_jana_atom_site_ADP_E_11223
_jana_atom_site_ADP_E_11233
_jana_atom_site_ADP_E_11333
_jana_atom_site_ADP_E_12222
_jana_atom_site_ADP_E_12223
_jana_atom_site_ADP_E_12233
_jana_atom_site_ADP_E_12333
_jana_atom_site_ADP_E_13333
_jana_atom_site_ADP_E_22222
_jana_atom_site_ADP_E_22223
_jana_atom_site_ADP_E_22233
_jana_atom_site_ADP_E_22333
_jana_atom_site_ADP_E_23333
_jana_atom_site_ADP_E_33333
? ? ? ? ? ? ? ? ? ? ? ? ? ? ? ? ? ? ? ? ? ? ?

loop_
_jana_atom_site_ADP_F_label
_jana_atom_site_ADP_F_type_symbol
_jana_atom_site_ADP_F_111111
_jana_atom_site_ADP_F_111112
_jana_atom_site_ADP_F_111113
_jana_atom_site_ADP_F_111122
_jana_atom_site_ADP_F_111123
_jana_atom_site_ADP_F_111133
_jana_atom_site_ADP_F_111222
_jana_atom_site_ADP_F_111223
_jana_atom_site_ADP_F_111233
_jana_atom_site_ADP_F_111333
_jana_atom_site_ADP_F_112222
_jana_atom_site_ADP_F_112223
_jana_atom_site_ADP_F_112233
_jana_atom_site_ADP_F_112333
_jana_atom_site_ADP_F_113333
_jana_atom_site_ADP_F_122222
_jana_atom_site_ADP_F_122223
_jana_atom_site_ADP_F_122233
_jana_atom_site_ADP_F_122333
_jana_atom_site_ADP_F_123333
_jana_atom_site_ADP_F_133333
_jana_atom_site_ADP_F_222222
_jana_atom_site_ADP_F_222223
_jana_atom_site_ADP_F_222233
_jana_atom_site_ADP_F_222333
_jana_atom_site_ADP_F_223333
_jana_atom_site_ADP_F_233333
_jana_atom_site_ADP_F_333333
? ? ? ? ? ? ? ? ? ? ? ? ? ? ? ? ? ? ? ? ? ? ? ? ? ? ? ? ? ?


#=======================================================================

# 10. MOLECULAR GEOMETRY


loop_
_geom_bond_atom_site_label_1
_geom_bond_atom_site_label_2
_geom_bond_site_symmetry_1
_geom_bond_site_symmetry_2
_geom_bond_distance
_geom_bond_publ_flag
Sn1 I3 . 4_555 3.305(3) ?
Sn1 I5 . . 3.086(3) ?
Sn1 I7 . . 3.054(3) ?
Sn1 I12 . . 3.214(3) ?
Sn1 I17 . . 2.977(3) ?
Sn2 I8 . . 3.014(3) ?
Sn2 I9 . . 3.262(3) ?
Sn2 I15 . . 3.014(3) ?
Sn2 I18 . . 3.021(3) ?
Sn3 I2 . 3_555 3.265(3) ?
Sn3 I5 . . 3.282(3) ?
Sn3 I7 . 1_545 3.285(3) ?
Sn3 I10 . . 3.001(3) ?
Sn3 I11 . . 3.049(3) ?
Sn3 I16 . . 3.019(3) ?
Sn4 I4 . . 2.944(3) ?
Sn4 I6 . . 2.980(3) ?
Sn4 I14 . . 3.012(3) ?
Sn5 I1 . . 3.040(3) ?
Sn5 I3 . . 3.056(3) ?
Sn5 I10 . . 3.270(3) ?
Sn5 I12 . 4_554 3.038(3) ?
Sn5 I16 . 1_565 3.314(3) ?
Sn6 I2 . . 3.091(3) ?
Sn6 I6 . . 3.138(3) ?
Sn6 I9 . . 3.182(3) ?
Sn6 I13 . . 2.938(3) ?
Sn6 I14 . . 3.279(3) ?
I2 N3 . . 3.74(3) ?
I4 N2 . 1_545 3.77(3) ?
I5 N3 . 3_555 3.84(3) ?
I5 N4 . . 3.74(2) ?
I7 N4 . . 3.78(3) ?
I8 N3 . 1_565 3.68(3) ?
I9 N3 . . 3.76(3) ?
I10 N4 . . 3.76(3) ?
N1 C1 . . 1.50(3) ?
N1 H1n1 . . 0.87 ?
N1 H2n1 . . 0.87 ?
N1 H3n1 . . 0.87 ?
N2 C3 . . 1.50(4) ?
N2 H1n2 . . 0.87 ?
N2 H2n2 . . 0.87 ?
N2 H3n2 . . 0.87 ?
N3 C5 . . 1.50(3) ?
N3 H1n3 . . 0.87 ?
N3 H2n3 . . 0.87 ?
N3 H3n3 . . 0.87 ?
N4 C7 . . 1.50(3) ?
N4 H1n4 . . 0.87 ?
N4 H2n4 . . 0.87 ?
N4 H3n4 . . 0.87 ?
N5 C9 . . 1.50(3) ?
N5 H1n5 . . 0.87 ?
N5 H2n5 . . 0.87 ?
N5 H3n5 . . 0.87 ?
N6 C11 . . 1.50(4) ?
N6 H1n6 . . 0.87 ?
N6 H2n6 . . 0.87 ?
N6 H3n6 . . 0.87 ?
C1 C2 . . 1.50(4) ?
C1 H1c1 . . 0.96 ?
C1 H2c1 . . 0.96 ?
C2 H1c2 . . 0.96 ?
C2 H2c2 . . 0.96 ?
C2 H3c2 . . 0.96 ?
C3 C4 . . 1.50(4) ?
C3 H1c3 . . 0.96 ?
C3 H2c3 . . 0.96 ?
C4 H1c4 . . 0.96 ?
C4 H2c4 . . 0.96 ?
C4 H3c4 . . 0.96 ?
C5 C6 . . 1.50(5) ?
C5 H1c5 . . 0.96 ?
C5 H2c5 . . 0.96 ?
C6 H1c6 . . 0.96 ?
C6 H2c6 . . 0.96 ?
C6 H3c6 . . 0.96 ?
C7 C8 . . 1.50(4) ?
C7 H1c7 . . 0.96 ?
C7 H2c7 . . 0.96 ?
C8 H1c8 . . 0.96 ?
C8 H2c8 . . 0.96 ?
C8 H3c8 . . 0.96 ?
C9 C10 . . 1.50(4) ?
C9 H1c9 . . 0.96 ?
C9 H2c9 . . 0.96 ?
C10 H1c10 . . 0.96 ?
C10 H2c10 . . 0.96 ?
C10 H3c10 . . 0.96 ?
C11 C12 . . 1.50(6) ?
C11 H1c11 . . 0.96 ?
C11 H2c11 . . 0.96 ?
C12 H1c12 . . 0.96 ?
C12 H2c12 . . 0.96 ?
C12 H3c12 . . 0.96 ?

loop_
_geom_angle_atom_site_label_1
_geom_angle_atom_site_label_2
_geom_angle_atom_site_label_3
_geom_angle_site_symmetry_1
_geom_angle_site_symmetry_2
_geom_angle_site_symmetry_3
_geom_angle
_geom_angle_publ_flag
I3 Sn1 I5 4_555 . . 95.22(8) ?
I3 Sn1 I7 4_555 . . 171.94(9) ?
I3 Sn1 I12 4_555 . . 84.00(7) ?
I3 Sn1 I17 4_555 . . 82.47(7) ?
I5 Sn1 I7 . . . 90.22(7) ?
I5 Sn1 I12 . . . 175.89(8) ?
I5 Sn1 I17 . . . 89.07(7) ?
I7 Sn1 I12 . . . 90.15(8) ?
I7 Sn1 I17 . . . 91.70(7) ?
I12 Sn1 I17 . . . 86.83(7) ?
I8 Sn2 I9 . . . 93.18(7) ?
I8 Sn2 I15 . . . 89.44(7) ?
I8 Sn2 I18 . . . 91.23(8) ?
I9 Sn2 I15 . . . 85.50(7) ?
I9 Sn2 I18 . . . 175.49(9) ?
I15 Sn2 I18 . . . 93.59(8) ?
I2 Sn3 I5 3_555 . . 80.32(6) ?
I2 Sn3 I7 3_555 . 1_545 94.50(7) ?
I2 Sn3 I10 3_555 . . 89.59(7) ?
I2 Sn3 I11 3_555 . . 166.25(9) ?
I2 Sn3 I16 3_555 . . 95.34(8) ?
I5 Sn3 I7 . . 1_545 86.09(7) ?
I5 Sn3 I10 . . . 92.50(7) ?
I5 Sn3 I11 . . . 86.32(7) ?
I5 Sn3 I16 . . . 171.78(8) ?
I7 Sn3 I10 1_545 . . 175.38(9) ?
I7 Sn3 I11 1_545 . . 87.76(8) ?
I7 Sn3 I16 1_545 . . 87.31(7) ?
I10 Sn3 I11 . . . 87.76(7) ?
I10 Sn3 I16 . . . 94.45(8) ?
I11 Sn3 I16 . . . 98.31(8) ?
I4 Sn4 I6 . . . 92.34(8) ?
I4 Sn4 I14 . . . 92.71(8) ?
I6 Sn4 I14 . . . 89.91(8) ?
I1 Sn5 I3 . . . 86.97(7) ?
I1 Sn5 I10 . . . 86.60(7) ?
I1 Sn5 I12 . . 4_554 94.11(7) ?
I1 Sn5 I16 . . 1_565 88.12(7) ?
I3 Sn5 I10 . . . 93.03(8) ?
I3 Sn5 I12 . . 4_554 91.43(7) ?
I3 Sn5 I16 . . 1_565 174.08(9) ?
I10 Sn5 I12 . . 4_554 175.52(9) ?
I10 Sn5 I16 . . 1_565 83.38(7) ?
I12 Sn5 I16 4_554 . 1_565 92.21(8) ?
I2 Sn6 I6 . . . 93.98(7) ?
I2 Sn6 I9 . . . 86.16(7) ?
I2 Sn6 I13 . . . 91.44(8) ?
I2 Sn6 I14 . . . 174.09(9) ?
I6 Sn6 I9 . . . 179.42(9) ?
I6 Sn6 I13 . . . 89.52(8) ?
I6 Sn6 I14 . . . 82.54(7) ?
I9 Sn6 I13 . . . 91.04(8) ?
I9 Sn6 I14 . . . 97.37(7) ?
I13 Sn6 I14 . . . 83.78(8) ?
Sn3 I2 Sn6 3_455 . . 173.47(9) ?
Sn3 I2 N3 3_455 . . 99.9(4) ?
Sn6 I2 N3 . . . 86.5(4) ?
Sn1 I3 Sn5 4_554 . . 77.27(7) ?
Sn4 I4 N2 . . 1_545 96.5(5) ?
Sn1 I5 Sn3 . . . 168.00(8) ?
Sn1 I5 N3 . . 3_555 93.8(4) ?
Sn1 I5 N4 . . . 87.6(4) ?
Sn3 I5 N3 . . 3_555 97.7(4) ?
Sn3 I5 N4 . . . 82.9(4) ?
N3 I5 N4 3_555 . . 157.3(6) ?
Sn4 I6 Sn6 . . . 81.90(7) ?
Sn1 I7 Sn3 . . 1_565 175.71(9) ?
Sn1 I7 N4 . . . 87.5(4) ?
Sn3 I7 N4 1_565 . . 93.1(4) ?
Sn2 I8 N3 . . 1_565 86.0(4) ?
Sn2 I9 Sn6 . . . 156.02(9) ?
Sn2 I9 N3 . . . 110.2(4) ?
Sn6 I9 N3 . . . 84.9(4) ?
Sn3 I10 Sn5 . . . 175.06(9) ?
Sn3 I10 N4 . . . 86.5(4) ?
Sn5 I10 N4 . . . 97.3(4) ?
Sn1 I12 Sn5 . . 4_555 78.92(7) ?
Sn4 I14 Sn6 . . . 79.10(6) ?
Sn3 I16 Sn5 . . 1_545 170.09(9) ?
C1 N1 H1n1 . . . 109.47 ?
C1 N1 H2n1 . . . 109.47 ?
C1 N1 H3n1 . . . 109.47 ?
H1n1 N1 H2n1 . . . 109.47 ?
H1n1 N1 H3n1 . . . 109.47 ?
H2n1 N1 H3n1 . . . 109.47 ?
I4 N2 C3 1_565 . . 142(2) ?
I4 N2 H1n2 1_565 . . 36.88 ?
I4 N2 H2n2 1_565 . . 101.7 ?
I4 N2 H3n2 1_565 . . 79.14 ?
C3 N2 H1n2 . . . 109.47 ?
C3 N2 H2n2 . . . 109.47 ?
C3 N2 H3n2 . . . 109.47 ?
H1n2 N2 H2n2 . . . 109.47 ?
H1n2 N2 H3n2 . . . 109.47 ?
H2n2 N2 H3n2 . . . 109.47 ?
I2 N3 I5 . . 3_455 67.7(5) ?
I2 N3 I8 . . 1_545 113.6(8) ?
I2 N3 I9 . . . 69.7(5) ?
I2 N3 C5 . . . 141(2) ?
I2 N3 H1n3 . . . 109.4 ?
I2 N3 H2n3 . . . 54.92 ?
I2 N3 H3n3 . . . 57.61 ?
I5 N3 I8 3_455 . 1_545 72.2(6) ?
I5 N3 I9 3_455 . . 135.5(8) ?
I5 N3 C5 3_455 . . 87.9(17) ?
I5 N3 H1n3 3_455 . . 126.63 ?
I5 N3 H2n3 3_455 . . 23.07 ?
I5 N3 H3n3 3_455 . . 111.09 ?
I8 N3 I9 1_545 . . 139.1(8) ?
I8 N3 C5 1_545 . . 84.8(16) ?
I8 N3 H1n3 1_545 . . 60.38 ?
I8 N3 H2n3 1_545 . . 67.53 ?
I8 N3 H3n3 1_545 . . 165.21 ?
I9 N3 C5 . . . 119.2(19) ?
I9 N3 H1n3 . . . 79.69 ?
I9 N3 H2n3 . . . 123.95 ?
I9 N3 H3n3 . . . 29.89 ?
C5 N3 H1n3 . . . 109.47 ?
C5 N3 H2n3 . . . 109.47 ?
C5 N3 H3n3 . . . 109.47 ?
H1n3 N3 H2n3 . . . 109.47 ?
H1n3 N3 H3n3 . . . 109.47 ?
H2n3 N3 H3n3 . . . 109.47 ?
I5 N4 I7 . . . 70.7(4) ?
I5 N4 I10 . . . 74.5(5) ?
I5 N4 C7 . . . 167.6(16) ?
I5 N4 H1n4 . . . 79.86 ?
I5 N4 H2n4 . . . 73.63 ?
I5 N4 H3n4 . . . 58.74 ?
I7 N4 I10 . . . 114.3(6) ?
I7 N4 C7 . . . 111.0(18) ?
I7 N4 H1n4 . . . 114.34 ?
I7 N4 H2n4 . . . 6.88 ?
I7 N4 H3n4 . . . 102.85 ?
I10 N4 C7 . . . 114.3(15) ?
I10 N4 H1n4 . . . 6.06 ?
I10 N4 H2n4 . . . 110.05 ?
I10 N4 H3n4 . . . 103.9 ?
C7 N4 H1n4 . . . 109.47 ?
C7 N4 H2n4 . . . 109.47 ?
C7 N4 H3n4 . . . 109.47 ?
H1n4 N4 H2n4 . . . 109.47 ?
H1n4 N4 H3n4 . . . 109.47 ?
H2n4 N4 H3n4 . . . 109.47 ?
C9 N5 H1n5 . . . 109.47 ?
C9 N5 H2n5 . . . 109.47 ?
C9 N5 H3n5 . . . 109.47 ?
H1n5 N5 H2n5 . . . 109.47 ?
H1n5 N5 H3n5 . . . 109.47 ?
H2n5 N5 H3n5 . . . 109.47 ?
C11 N6 H1n6 . . . 109.47 ?
C11 N6 H2n6 . . . 109.47 ?
C11 N6 H3n6 . . . 109.47 ?
H1n6 N6 H2n6 . . . 109.47 ?
H1n6 N6 H3n6 . . . 109.47 ?
H2n6 N6 H3n6 . . . 109.47 ?
N1 C1 C2 . . . 108.0(19) ?
N1 C1 H1c1 . . . 109.47 ?
N1 C1 H2c1 . . . 109.47 ?
C2 C1 H1c1 . . . 109.47 ?
C2 C1 H2c1 . . . 109.47 ?
H1c1 C1 H2c1 . . . 110.9 ?
C1 C2 H1c2 . . . 109.47 ?
C1 C2 H2c2 . . . 109.47 ?
C1 C2 H3c2 . . . 109.47 ?
H1c2 C2 H2c2 . . . 109.47 ?
H1c2 C2 H3c2 . . . 109.47 ?
H2c2 C2 H3c2 . . . 109.47 ?
N2 C3 C4 . . . 108(2) ?
N2 C3 H1c3 . . . 109.47 ?
N2 C3 H2c3 . . . 109.47 ?
C4 C3 H1c3 . . . 109.47 ?
C4 C3 H2c3 . . . 109.47 ?
H1c3 C3 H2c3 . . . 110.9 ?
C3 C4 H1c4 . . . 109.47 ?
C3 C4 H2c4 . . . 109.47 ?
C3 C4 H3c4 . . . 109.47 ?
H1c4 C4 H2c4 . . . 109.47 ?
H1c4 C4 H3c4 . . . 109.47 ?
H2c4 C4 H3c4 . . . 109.47 ?
N3 C5 C6 . . . 108(2) ?
N3 C5 H1c5 . . . 109.47 ?
N3 C5 H2c5 . . . 109.47 ?
C6 C5 H1c5 . . . 109.47 ?
C6 C5 H2c5 . . . 109.47 ?
H1c5 C5 H2c5 . . . 110.9 ?
C5 C6 H1c6 . . . 109.47 ?
C5 C6 H2c6 . . . 109.47 ?
C5 C6 H3c6 . . . 109.47 ?
H1c6 C6 H2c6 . . . 109.47 ?
H1c6 C6 H3c6 . . . 109.47 ?
H2c6 C6 H3c6 . . . 109.47 ?
N4 C7 C8 . . . 108(2) ?
N4 C7 H1c7 . . . 109.47 ?
N4 C7 H2c7 . . . 109.47 ?
C8 C7 H1c7 . . . 109.47 ?
C8 C7 H2c7 . . . 109.47 ?
H1c7 C7 H2c7 . . . 110.9 ?
C7 C8 H1c8 . . . 109.47 ?
C7 C8 H2c8 . . . 109.47 ?
C7 C8 H3c8 . . . 109.47 ?
H1c8 C8 H2c8 . . . 109.47 ?
H1c8 C8 H3c8 . . . 109.47 ?
H2c8 C8 H3c8 . . . 109.47 ?
N5 C9 C10 . . . 108.0(19) ?
N5 C9 H1c9 . . . 109.47 ?
N5 C9 H2c9 . . . 109.47 ?
C10 C9 H1c9 . . . 109.47 ?
C10 C9 H2c9 . . . 109.47 ?
H1c9 C9 H2c9 . . . 110.9 ?
C9 C10 H1c10 . . . 109.47 ?
C9 C10 H2c10 . . . 109.47 ?
C9 C10 H3c10 . . . 109.47 ?
H1c10 C10 H2c10 . . . 109.47 ?
H1c10 C10 H3c10 . . . 109.47 ?
H2c10 C10 H3c10 . . . 109.47 ?
N6 C11 C12 . . . 108(3) ?
N6 C11 H1c11 . . . 109.47 ?
N6 C11 H2c11 . . . 109.47 ?
C12 C11 H1c11 . . . 109.47 ?
C12 C11 H2c11 . . . 109.47 ?
H1c11 C11 H2c11 . . . 110.9 ?
C11 C12 H1c12 . . . 109.47 ?
C11 C12 H2c12 . . . 109.47 ?
C11 C12 H3c12 . . . 109.47 ?
H1c12 C12 H2c12 . . . 109.47 ?
H1c12 C12 H3c12 . . . 109.47 ?
H2c12 C12 H3c12 . . . 109.47 ?

loop_
_geom_torsion_atom_site_label_1
_geom_torsion_atom_site_label_2
_geom_torsion_atom_site_label_3
_geom_torsion_atom_site_label_4
_geom_torsion_site_symmetry_1
_geom_torsion_site_symmetry_2
_geom_torsion_site_symmetry_3
_geom_torsion_site_symmetry_4
_geom_torsion
_geom_torsion_publ_flag
? ? ? ? ? ? ? ? ? ?

loop_
_geom_hbond_atom_site_label_D
_geom_hbond_atom_site_label_H
_geom_hbond_atom_site_label_A
_geom_hbond_site_symmetry_D
_geom_hbond_site_symmetry_H
_geom_hbond_site_symmetry_A
_geom_hbond_distance_DH
_geom_hbond_distance_HA
_geom_hbond_distance_DA
_geom_hbond_angle_DHA
_geom_hbond_publ_flag
? ? ? ? ? ? ? ? ? ? ?


#=======================================================================

# 11. STRUCTURE-FACTOR LIST

loop_
_refln_index_h
_refln_index_k
_refln_index_l
_refln_F_squared_calc
_refln_F_squared_meas
_refln_F_squared_sigma
_refln_observed_status
? ? ? ? ? ? ?

loop_
_twin_refln_datum_id
_twin_refln_individual_id
_twin_refln_index_h
_twin_refln_index_k
_twin_refln_index_l
_twin_refln_F_squared_calc
_twin_refln_F_squared_meas
_twin_refln_F_squared_sigma
_twin_refln_include_status
1 2 -2 1 0 800. 1220. 6285. <
1 1 4 0 0 800. 1220. 6285. <
2 1 6 0 0 108. 4027. 5369. <
3 2 -4 2 0 10404. 8848. 4638. <
3 1 8 0 0 10404. 8848. 4638. <
4 1 10 0 0 2068. 1953. 3783. <
5 2 -6 3 0 126964. 121980. 4189. o
5 1 12 0 0 126964. 121980. 4189. o
6 1 14 0 0 17662. 14157. 3360. o
7 2 -8 4 0 14099. 15560. 2927. o
7 1 16 0 0 14099. 15560. 2927. o
8 1 18 0 0 22869. 20015. 2874. o
9 2 -10 5 0 26149. 29473. 2737. o
9 1 20 0 0 26149. 29473. 2737. o
10 1 22 0 0 3693. 2502. 2380. <
11 2 -12 6 0 850144. 837264. 5170. o
11 1 24 0 0 850144. 837264. 5170. o
12 1 26 0 0 21163. 19954. 2748. o
13 2 -14 7 0 49706. 49061. 2810. o
13 1 28 0 0 49706. 49061. 2810. o
14 1 30 0 0 143. 7078. 3598. <
15 2 -16 8 0 6568. 5248. 3662. <
15 1 32 0 0 6568. 5248. 3662. <
16 1 34 0 0 1458. 1831. 2624. <
17 2 -18 9 0 31485. 32585. 2987. o
17 1 36 0 0 31485. 32585. 2987. o
18 2 20 -8 0 4801. 5492. 2562. o
18 1 -34 1 0 4801. 5492. 2562. o
19 2 18 -7 0 17597. 17025. 3662. o
19 1 -30 1 0 17597. 17025. 3662. o
20 2 16 -6 0 28942. 23737. 2455. o
20 1 -26 1 0 28942. 23737. 2455. o
21 2 14 -5 0 12498. 10801. 2321. o
21 1 -22 1 0 12498. 10801. 2321. o
22 2 12 -4 0 100831. 94460. 3044. o
22 1 -18 1 0 100831. 94460. 3044. o
23 2 10 -3 0 3280. 6346. 2805. o
23 1 -14 1 0 3280. 6346. 2805. o
24 2 8 -2 0 1536. 6163. 4148. <
24 1 -10 1 0 1536. 6163. 4148. <
25 2 6 -1 0 50113. 46010. 5014. o
25 1 -6 1 0 50113. 46010. 5014. o
26 2 4 0 0 373. 1831. 7444. <
26 1 -2 1 0 373. 1831. 7444. <
27 1 1 1 0 22269. 20625. 7385. o
28 2 2 1 0 257. 488. 9092. <
28 1 2 1 0 257. 488. 9092. <
29 1 3 1 0 7711. 4455. 4761. <
30 1 4 1 0 101. 549. 4088. <
31 1 5 1 0 11859. 9153. 4273. o
32 2 0 2 0 68300. 57359. 5828. o
32 1 6 1 0 68300. 57359. 5828. o
33 1 7 1 0 3880. 2441. 3295. <
34 1 8 1 0 3754. 1709. 2990. <
35 1 9 1 0 31405. 26544. 2820. o
36 2 -2 3 0 12342. 11106. 3601. o
36 1 10 1 0 12342. 11106. 3601. o
37 1 11 1 0 70326. 67611. 3007. o
38 1 12 1 0 2. 122. 2685. <
39 1 13 1 0 44043. 41860. 2694. o
40 2 -4 4 0 20966. 18550. 3543. o
40 1 14 1 0 20966. 18550. 3543. o
41 1 15 1 0 157220. 141751. 2902. o
42 1 16 1 0 4130. 2685. 2136. <
43 1 17 1 0 82222. 81218. 2267. o
44 2 -6 5 0 65566. 66879. 3043. o
44 1 18 1 0 65566. 66879. 3043. o
45 1 19 1 0 10908. 9092. 1833. o
46 1 20 1 0 7199. 6651. 1770. o
47 1 21 1 0 20. 427. 1709. <
48 2 -8 6 0 4572. 732. 2686. <
48 1 22 1 0 4572. 732. 2686. <
49 1 23 1 0 2944. 4027. 1891. o
50 1 24 1 0 2668. 8787. 1886. o
51 1 25 1 0 107847. 108007. 2195. o
52 2 -10 7 0 21908. 20869. 2992. o
52 1 26 1 0 21908. 20869. 2992. o
53 1 27 1 0 73047. 72981. 2075. o
54 1 28 1 0 51. 1037. 2258. <
55 1 29 1 0 27780. 27764. 2258. o
56 2 -12 8 0 35917. 28008. 4104. o
56 1 30 1 0 35917. 28008. 4104. o
57 1 31 1 0 9677. 8177. 2503. o
58 1 32 1 0 10138. 9763. 2197. o
59 1 33 1 0 8748. 12509. 2192. o
60 2 -14 9 0 6338. 4882. 2869. <
60 1 34 1 0 6338. 4882. 2869. <
61 1 35 1 0 95. 1648. 1952. <
62 1 36 1 0 13. 6895. 2009. o
63 2 24 -8 0 26423. 20808. 2576. o
63 1 -36 2 0 26423. 20808. 2576. o
64 2 22 -7 0 4160. 6590. 2561. o
64 1 -32 2 0 4160. 6590. 2561. o
65 2 20 -6 0 10363. 11106. 3233. o
65 1 -28 2 0 10363. 11106. 3233. o
66 2 18 -5 0 164925. 156396. 3050. o
66 1 -24 2 0 164925. 156396. 3050. o
67 2 16 -4 0 12329. 11411. 2320. o
67 1 -20 2 0 12329. 11411. 2320. o
68 2 14 -3 0 7472. 3417. 2931. <
68 1 -16 2 0 7472. 3417. 2931. <
69 2 12 -2 0 6261480. 6102060. 29110. o
69 1 -12 2 0 6261480. 6102060. 29110. o
70 2 10 -1 0 3310. 3539. 4210. <
70 1 -8 2 0 3310. 3539. 4210. <
71 2 8 0 0 6663. 5248. 7872. <
71 1 -4 2 0 6663. 5248. 7872. <
72 2 6 1 0 134164. 124360. 9797. o
72 1 0 2 0 134164. 124360. 9797. o
73 1 1 2 0 110. 1526. 7017. <
74 1 2 2 0 24100. 21357. 6959. o
75 1 3 2 0 4821. 6773. 5247. <
76 2 4 2 0 5643. 3539. 7628. <
76 1 4 2 0 5643. 3539. 7628. <
77 1 5 2 0 269990. 253175. 5056. o
78 1 6 2 0 3408. 1831. 3539. <
79 1 7 2 0 36062. 38443. 3288. o
80 2 2 3 0 14583. 10068. 4763. o
80 1 8 2 0 14583. 10068. 4763. o
81 1 9 2 0 111760. 106481. 3161. o
82 1 10 2 0 2748. 2746. 2685. <
83 1 11 2 0 164749. 149134. 3312. o
84 1 13 2 0 439782. 412194. 4179. o
85 1 14 2 0 2116. 2380. 2380. <
86 1 15 2 0 73918. 65475. 2503. o
87 2 -2 5 0 6415. 3600. 3418. <
87 1 16 2 0 6415. 3600. 3418. <
88 1 17 2 0 15235. 16109. 2195. o
89 1 18 2 0 1913. 2685. 2013. <
90 1 19 2 0 32778. 29290. 2028. o
91 2 -4 6 0 11534. 14767. 2986. o
91 1 20 2 0 11534. 14767. 2986. o
92 1 21 2 0 11. 1342. 1891. <
93 1 22 2 0 3820. 2563. 1831. <
94 1 23 2 0 16752. 13242. 2142. o
95 2 -6 7 0 141433. 158043. 3213. o
95 1 24 2 0 141433. 158043. 3213. o
96 1 25 2 0 2191. 6224. 2378. o
97 1 26 2 0 37944. 38748. 2315. o
98 1 27 2 0 716. 1281. 2197. <
99 2 -8 8 0 5958. 3722. 3113. <
99 1 28 2 0 5958. 3722. 3113. <
100 1 29 2 0 1398. -122. 2136. <
101 1 30 2 0 7646. 7139. 2197. o
102 1 31 2 0 1663. -1342. 2075. <
103 2 -10 9 0 3813. 7872. 4270. <
103 1 32 2 0 3813. 7872. 4270. <
104 1 33 2 0 548. 3600. 2257. <
105 1 34 2 0 2065. 6834. 2010. o
106 1 35 2 0 967. 4760. 1951. o
107 2 -12 10 0 26332. 27276. 3110. o
107 1 36 2 0 26332. 27276. 3110. o
108 2 26 -7 0 3075. 6041. 2683. o
108 1 -34 3 0 3075. 6041. 2683. o
109 2 24 -6 0 100601. 95131. 2797. o
109 1 -30 3 0 100601. 95131. 2797. o
110 2 22 -5 0 5312. 1953. 2442. <
110 1 -26 3 0 5312. 1953. 2442. <
111 2 20 -4 0 7841. 7567. 3295. o
111 1 -22 3 0 7841. 7567. 3295. o
112 2 18 -3 0 2759. 7445. 3354. o
112 1 -18 3 0 2759. 7445. 3354. o
113 2 16 -2 0 6499. 7139. 3966. <
113 1 -14 3 0 6499. 7139. 3966. <
114 2 14 -1 0 8188. 9946. 4942. o
114 1 -10 3 0 8188. 9946. 4942. o
115 2 12 0 0 108527. 99708. 4629. o
115 1 -6 3 0 108527. 99708. 4629. o
116 2 10 1 0 53418. 48206. 5018. o
116 1 -2 3 0 53418. 48206. 5018. o
117 1 0 3 0 1508. 6041. 7139. <
118 1 1 3 0 68140. 63156. 6542. o
119 2 8 2 0 53902. 49671. 10806. o
119 1 2 3 0 53902. 49671. 10806. o
120 1 3 3 0 4437. 3539. 5248. <
121 1 4 3 0 5194. 6346. 5125. <
122 1 5 3 0 2431. 4210. 4454. <
123 2 6 3 0 103691. 99830. 6728. o
123 1 6 3 0 103691. 99830. 6728. o
124 1 7 3 0 9969. 9519. 3417. o
125 1 8 3 0 301. 1159. 3905. <
126 1 9 3 0 584. 2319. 3478. <
127 2 4 4 0 27173. 21052. 3854. o
127 1 10 3 0 27173. 21052. 3854. o
128 1 11 3 0 1137. 915. 2868. <
129 1 12 3 0 35088. 36856. 3290. o
130 1 13 3 0 177678. 181841. 3544. o
131 2 2 5 0 5180. 6285. 3722. <
131 1 14 3 0 5180. 6285. 3722. <
132 1 15 3 0 32696. 29290. 2634. o
133 1 16 3 0 2426. 2502. 2441. <
134 1 17 3 0 97362. 95375. 2764. o
135 2 0 6 0 39612. 40457. 3353. o
135 1 18 3 0 39612. 40457. 3353. o
136 1 19 3 0 15038. 17879. 2374. o
137 1 20 3 0 71893. 72309. 2621. o
138 1 21 3 0 1288. 2319. 2319. <
139 2 -2 7 0 22952. 17147. 3000. o
139 1 22 3 0 22952. 17147. 3000. o
140 1 23 3 0 4017. 4332. 2197. <
141 1 24 3 0 1549. 3844. 2257. <
142 1 25 3 0 1763. 1220. 2319. <
143 2 -4 8 0 8718. 2990. 3236. <
143 1 26 3 0 8718. 2990. 3236. <
144 1 27 3 0 20920. 16170. 2146. o
145 1 28 3 0 16639. 12326. 1900. o
146 1 29 3 0 37397. 37345. 2197. o
147 2 -6 9 0 89679. 93484. 4679. o
147 1 30 3 0 89679. 93484. 4679. o
148 1 31 3 0 26811. 26056. 2321. o
149 1 32 3 0 8709. 6834. 2320. o
150 1 33 3 0 1825. 9397. 2007. o
151 2 -8 10 0 1281. 6346. 3049. o
151 1 34 3 0 1281. 6346. 3049. o
152 1 35 3 0 26. 2136. 2074. <
153 2 28 -6 0 846. 5553. 2744. o
153 1 -32 4 0 846. 5553. 2744. o
154 2 26 -5 0 3891. 4821. 2684. <
154 1 -28 4 0 3891. 4821. 2684. <
155 2 24 -4 0 195416. 190872. 3664. o
155 1 -24 4 0 195416. 190872. 3664. o
156 2 22 -3 0 1790. 5248. 2806. <
156 1 -20 4 0 1790. 5248. 2806. <
157 2 20 -2 0 15711. 15133. 2991. o
157 1 -16 4 0 15711. 15133. 2991. o
158 2 18 -1 0 178174. 173116. 3845. o
158 1 -12 4 0 178174. 173116. 3845. o
159 2 16 0 0 22015. 22150. 4027. o
159 1 -8 4 0 22015. 22150. 4027. o
160 2 14 1 0 90190. 91104. 4511. o
160 1 -4 4 0 90190. 91104. 4511. o
161 1 1 4 0 1171220. 1154510. 10395. o
162 1 2 4 0 6444. 5370. 5187. <
163 1 3 4 0 128421. 123018. 5464. o
164 2 10 3 0 91529. 94521. 9450. o
164 1 4 4 0 91529. 94521. 9450. o
165 1 5 4 0 88929. 88297. 4763. o
166 1 6 4 0 19918. 13791. 4095. o
167 1 7 4 0 180698. 167441. 4411. o
168 2 8 4 0 24200. 25568. 5490. o
168 1 8 4 0 24200. 25568. 5490. o
169 1 9 4 0 26852. 30205. 2859. o
170 1 10 4 0 83704. 76154. 2863. o
171 1 11 4 0 621. 3051. 2501. <
172 2 6 5 0 164320. 158532. 4510. o
172 1 12 4 0 164320. 158532. 4510. o
173 1 13 4 0 12309. 12692. 2379. o
174 1 14 4 0 96554. 89456. 2511. o
175 1 15 4 0 1785. 2563. 2258. <
176 2 4 6 0 15845. 15133. 3418. o
176 1 16 4 0 15845. 15133. 3418. o
177 1 17 4 0 30815. 28252. 2145. o
178 1 18 4 0 7405. 9763. 1950. o
179 1 19 4 0 40. 5004. 2073. o
180 2 2 7 0 15228. 14889. 3296. o
180 1 20 4 0 15228. 14889. 3296. o
181 1 21 4 0 31146. 35209. 2118. o
182 1 22 4 0 3277. 4088. 2013. o
183 1 23 4 0 19700. 21235. 2071. o
184 2 0 8 0 165305. 161583. 3585. o
184 1 24 4 0 165305. 161583. 3585. o
185 1 25 4 0 217641. 225959. 2428. o
186 1 26 4 0 4386. 7078. 1950. o
187 1 27 4 0 34728. 33317. 2446. o
188 2 -2 9 0 3542. 5858. 4332. <
188 1 28 4 0 3542. 5858. 4332. <
189 1 29 4 0 1807. 2685. 2196. <
190 1 30 4 0 318. 3844. 2257. <
191 1 31 4 0 1301. 5004. 1951. o
192 2 -4 10 0 117. 1587. 2929. <
192 1 32 4 0 117. 1587. 2929. <
193 1 33 4 0 3238. 6956. 2072. o
194 1 34 4 0 3283. 7689. 1949. o
195 2 30 -5 0 8202. 11045. 2865. o
195 1 -30 5 0 8202. 11045. 2865. o
196 2 28 -4 0 2670. 6529. 2805. o
196 1 -26 5 0 2670. 6529. 2805. o
197 2 26 -3 0 1425. 6102. 2866. o
197 1 -22 5 0 1425. 6102. 2866. o
198 2 24 -2 0 144593. 139127. 3477. o
198 1 -18 5 0 144593. 139127. 3477. o
199 2 22 -1 0 57536. 60533. 3158. o
199 1 -14 5 0 57536. 60533. 3158. o
200 2 20 0 0 39293. 41372. 3472. o
200 1 -10 5 0 39293. 41372. 3472. o
201 2 18 1 0 14536. 20076. 3593. o
201 1 -6 5 0 14536. 20076. 3593. o
202 2 16 2 0 1571. 1892. 4271. <
202 1 -2 5 0 1571. 1892. 4271. <
203 1 0 5 0 205201. 198378. 8100. o
204 1 1 5 0 33541. 33195. 4943. o
205 1 3 5 0 3908. 3966. 3844. <
206 1 4 5 0 2213. 5065. 3843. <
207 1 5 5 0 28329. 31120. 3533. o
208 1 7 5 0 31578. 30754. 4639. o
209 1 8 5 0 2528. 5004. 3905. <
210 1 9 5 0 55025. 52600. 3671. o
211 2 10 5 0 42926. 40518. 5375. o
211 1 10 5 0 42926. 40518. 5375. o
212 1 11 5 0 9508. 9397. 2685. o
213 1 12 5 0 1664. 2929. 2502. <
214 1 13 5 0 39413. 37100. 2694. o
215 2 8 6 0 61972. 56627. 3927. o
215 1 14 5 0 61972. 56627. 3927. o
216 1 15 5 0 7844. 8482. 2379. o
217 1 16 5 0 24296. 26788. 2250. o
218 1 17 5 0 12239. 11228. 2259. o
219 2 6 7 0 115822. 112034. 3995. o
219 1 18 5 0 115822. 112034. 3995. o
220 1 19 5 0 65632. 72859. 2385. o
221 1 20 5 0 3902. 4943. 2135. o
222 1 21 5 0 3622. 6163. 2195. o
223 2 4 8 0 3765. 549. 2868. <
223 1 22 5 0 3765. 549. 2868. <
224 1 23 5 0 921. -427. 2380. <
225 1 24 5 0 41319. 41311. 2502. o
226 1 25 5 0 16851. 18977. 2375. o
227 2 2 9 0 1989. 1648. 4760. <
227 1 26 5 0 1989. 1648. 4760. <
228 1 27 5 0 248. -244. 2502. <
229 1 28 5 0 13355. 14706. 2133. o
230 1 29 5 0 57576. 53454. 2284. o
231 2 0 10 0 18476. 6834. 3244. o
231 1 30 5 0 18476. 6834. 3244. o
232 1 31 5 0 9969. 12753. 2193. o
233 1 32 5 0 30386. 22761. 2341. o
234 2 32 -4 0 3736. 5797. 2806. o
234 1 -28 6 0 3736. 5797. 2806. o
235 2 30 -3 0 70880. 68099. 3371. o
235 1 -24 6 0 70880. 68099. 3371. o
236 2 28 -2 0 31727. 35270. 3102. o
236 1 -20 6 0 31727. 35270. 3102. o
237 2 26 -1 0 40336. 40823. 3049. o
237 1 -16 6 0 40336. 40823. 3049. o
238 2 24 0 0 375635. 354835. 4884. o
238 1 -12 6 0 375635. 354835. 4884. o
239 2 22 1 0 20742. 22334. 2987. o
239 1 -8 6 0 20742. 22334. 2987. o
240 2 20 2 0 11920. 12692. 3844. o
240 1 -4 6 0 11920. 12692. 3844. o
241 2 18 3 0 173555. 186296. 9393. o
241 1 0 6 0 173555. 186296. 9393. o
242 1 1 6 0 72501. 69991. 6354. o
243 1 2 6 0 87072. 78717. 5404. o
244 1 3 6 0 1838. 2136. 4088. <
245 1 5 6 0 24893. 28680. 3531. o
246 1 6 6 0 56242. 51746. 3496. o
247 1 7 6 0 14133. 15377. 3110. o
248 1 9 6 0 14120. 14279. 2990. o
249 1 10 6 0 18829. 18550. 3845. o
250 1 11 6 0 276246. 256958. 4979. o
251 2 12 6 0 247560. 252930. 8194. o
251 1 12 6 0 247560. 252930. 8194. o
252 1 13 6 0 572280. 611488. 4897. o
253 1 14 6 0 48644. 48511. 3723. o
254 1 15 6 0 9035. 12021. 3048. o
255 2 10 7 0 36521. 43081. 7374. o
255 1 16 6 0 36521. 43081. 7374. o
256 1 17 6 0 18789. 19649. 2805. o
257 1 18 6 0 672. 3600. 2989. <
258 1 19 6 0 681. 2624. 2868. <
259 2 8 8 0 33203. 37345. 3589. o
259 1 20 6 0 33203. 37345. 3589. o
260 1 21 6 0 2416. 4638. 2257. o
261 1 22 6 0 17820. 18550. 2317. o
262 1 23 6 0 10432. 15743. 2433. o
263 2 6 9 0 51974. 51929. 3722. o
263 1 24 6 0 51974. 51929. 3722. o
264 1 25 6 0 5. 305. 2441. <
265 1 26 6 0 29700. 29046. 2565. o
266 1 27 6 0 672. 3478. 2379. <
267 2 4 10 0 3799. 5126. 3173. <
267 1 28 6 0 3799. 5126. 3173. <
268 1 29 6 0 1800. 3722. 2196. <
269 1 30 6 0 53. 4699. 2378. <
270 2 34 -3 0 10084. 11472. 2989. o
270 1 -26 7 0 10084. 11472. 2989. o
271 2 32 -2 0 7277. 8909. 2867. o
271 1 -22 7 0 7277. 8909. 2867. o
272 2 30 -1 0 4937. 6773. 3050. o
272 1 -18 7 0 4937. 6773. 3050. o
273 2 28 0 0 13371. 16170. 2681. o
273 1 -14 7 0 13371. 16170. 2681. o
274 2 26 1 0 7777. 14401. 3594. o
274 1 -10 7 0 7777. 14401. 3594. o
275 2 24 2 0 35454. 40090. 4199. o
275 1 -6 7 0 35454. 40090. 4199. o
276 2 22 3 0 71552. 61509. 6495. o
276 1 -2 7 0 71552. 61509. 6495. o
277 1 1 7 0 7563. 9397. 7871. <
278 1 3 7 0 47018. 48389. 5489. o
279 1 4 7 0 12724. 12265. 4699. o
280 1 5 7 0 84946. 97511. 4755. o
281 1 7 7 0 13548. 18123. 3900. o
282 1 8 7 0 3673. 5980. 3660. <
283 1 9 7 0 27766. 30022. 3595. o
284 1 11 7 0 449. 1587. 3478. <
285 1 12 7 0 149895. 158593. 3687. o
286 1 13 7 0 8174. 8421. 2929. o
287 2 14 7 0 3545. 4943. 7261. <
287 1 14 7 0 3545. 4943. 7261. <
288 1 15 7 0 3803. 2624. 3600. <
289 1 16 7 0 37561. 40335. 3531. o
290 1 17 7 0 32198. 34782. 3349. o
291 2 12 8 0 19695. 11289. 5620. o
291 1 18 7 0 19695. 11289. 5620. o
292 1 19 7 0 4040. 3112. 3051. <
293 1 20 7 0 1550. 6163. 2744. o
294 1 21 7 0 13503. 12692. 2625. o
295 2 10 9 0 7787. 8604. 4332. <
295 1 22 7 0 7787. 8604. 4332. <
296 1 23 7 0 7332. 12143. 2619. o
297 1 24 7 0 1233. 4821. 2500. <
298 1 25 7 0 12440. 14950. 2437. o
299 2 8 10 0 10217. 9885. 4028. o
299 1 26 7 0 10217. 9885. 4028. o
300 1 27 7 0 9162. 14401. 2678. o
301 2 36 -2 0 6609. 7567. 2928. o
301 1 -24 8 0 6609. 7567. 2928. o
302 2 34 -1 0 2728. 2319. 3539. <
302 1 -20 8 0 2728. 2319. 3539. <
303 2 32 0 0 18020. 20503. 3413. o
303 1 -16 8 0 18020. 20503. 3413. o
304 2 30 1 0 89469. 100928. 3766. o
304 1 -12 8 0 89469. 100928. 3766. o
305 2 28 2 0 11298. 10801. 3479. o
305 1 -8 8 0 11298. 10801. 3479. o
306 2 26 3 0 17182. 15377. 5615. o
306 1 -4 8 0 17182. 15377. 5615. o
307 1 3 8 0 5645. 6773. 6773. <
308 1 5 8 0 15044. 15377. 4881. o
309 1 6 8 0 46. 488. 4516. <
310 1 7 8 0 785. 4393. 3905. <
311 1 9 8 0 253. 915. 3478. <
312 1 10 8 0 2106. 2624. 3356. <
313 1 11 8 0 17647. 20503. 3291. o
314 1 13 8 0 9740. 12021. 3293. o
315 1 14 8 0 12690. 12814. 3173. o
316 1 15 8 0 119. 1159. 3417. <
317 1 17 8 0 897. 3478. 3172. <
318 1 18 8 0 19325. 20259. 3172. o
319 1 19 8 0 488. 1403. 4332. <
320 2 14 9 0 3694. 2685. 7201. <
320 1 20 8 0 3694. 2685. 7201. <
321 1 21 8 0 933. 5614. 3599. <
322 1 22 8 0 5682. 8177. 3477. o
323 1 23 8 0 5032. 7017. 3416. o
324 2 12 10 0 1144. 4393. 5613. <
324 1 24 8 0 1144. 4393. 5613. <
325 2 36 0 0 6863. 6529. 3844. <
325 1 -18 9 0 6863. 6529. 3844. <
326 2 34 1 0 9801. 9824. 3478. o
326 1 -14 9 0 9801. 9824. 3478. o
327 2 32 2 0 5629. 8238. 4087. o
327 1 -10 9 0 5629. 8238. 4087. o
328 2 30 3 0 20067. 21723. 5917. o
328 1 -6 9 0 20067. 21723. 5917. o
329 1 5 9 0 5. 2319. 6834. <
330 1 7 9 0 63990. 62485. 5740. o
331 1 8 9 0 44340. 41860. 5009. o
332 1 9 9 0 11062. 10007. 4089. o
333 1 11 9 0 532. 4821. 3965. <
334 1 12 9 0 1314. 1953. 4027. <
335 1 13 9 0 176. 1770. 3417. <
336 1 15 9 0 14549. 12509. 3785. o
337 1 16 9 0 137. 2990. 3600. <
338 1 17 9 0 24689. 29595. 3835. o
339 1 19 9 0 17008. 23005. 4080. o
340 2 34 3 0 1747. 4821. 6407. <
340 1 -8 10 0 1747. 4821. 6407. <
341 1 7 10 0 837. 2441. 7994. <
342 1 9 10 0 439. 3173. 5675. <
343 1 10 10 0 33340. 28558. 5194. o
344 1 11 10 0 42529. 24957. 4972. o
345 1 2 0 1 541. 122. 7139. <
346 1 2 0 -1 540. 3112. 7505. <
347 2 -2 1 -1 731980. 726756. 13803. o
347 1 4 0 1 731980. 726756. 13803. o
348 2 -2 1 1 731238. 749577. 9129. o
348 1 4 0 -1 731238. 749577. 9129. o
349 1 6 0 1 3717. 2075. 4638. <
350 1 6 0 -1 3794. 2075. 5309. <
351 2 -4 2 -1 127557. 119844. 5114. o
351 1 8 0 1 127557. 119844. 5114. o
352 2 -4 2 1 126973. 124543. 4533. o
352 1 8 0 -1 126973. 124543. 4533. o
353 1 10 0 1 10688. 11960. 3843. o
354 1 10 0 -1 10348. 8787. 3784. o
355 2 -6 3 -1 40083. 36307. 3854. o
355 1 12 0 1 40083. 36307. 3854. o
356 2 -6 3 1 41454. 40274. 3848. o
356 1 12 0 -1 41454. 40274. 3848. o
357 1 14 0 1 1715. 3173. 3173. <
358 1 14 0 -1 1686. 244. 3295. <
359 2 -8 4 -1 57972. 58519. 3293. o
359 1 16 0 1 57972. 58519. 3293. o
360 2 -8 4 1 58880. 55895. 3248. o
360 1 16 0 -1 58880. 55895. 3248. o
361 1 18 0 1 272. 1709. 2807. <
362 1 18 0 -1 233. 3966. 2745. <
363 2 -10 5 -1 28214. 24225. 2695. o
363 1 20 0 1 28214. 24225. 2695. o
364 2 -10 5 1 28435. 24835. 2633. o
364 1 20 0 -1 28435. 24835. 2633. o
365 1 22 0 1 12984. 10984. 2504. o
366 1 22 0 -1 13617. 12021. 2504. o
367 2 -12 6 -1 422597. 406580. 4114. o
367 1 24 0 1 422597. 406580. 4114. o
368 2 -12 6 1 424099. 425436. 3681. o
368 1 24 0 -1 424099. 425436. 3681. o
369 1 26 0 1 3617. 6529. 3660. <
370 1 26 0 -1 3725. 4149. 2380. <
371 2 -14 7 -1 105761. 100013. 3885. o
371 1 28 0 1 105761. 100013. 3885. o
372 2 -14 7 1 106350. 102271. 3027. o
372 1 28 0 -1 106350. 102271. 3027. o
373 1 30 0 1 3263. 3600. 3722. <
374 1 30 0 -1 3233. 7261. 2194. o
375 2 -16 8 -1 20270. 20381. 3783. o
375 1 32 0 1 20270. 20381. 3783. o
376 2 -16 8 1 19574. 21479. 2070. o
376 1 32 0 -1 19574. 21479. 2070. o
377 1 34 0 1 19428. 14889. 3849. o
378 1 34 0 -1 19369. 15987. 2691. o
379 2 -18 9 -1 43534. 41982. 2874. o
379 1 36 0 1 43534. 41982. 2874. o
380 2 -18 9 1 43739. 42898. 2871. o
380 1 36 0 -1 43739. 42898. 2871. o
381 2 20 -8 -1 10317. 10434. 3722. o
381 1 -34 1 1 10317. 10434. 3722. o
382 2 20 -8 1 9942. 9702. 2502. o
382 1 -34 1 -1 9942. 9702. 2502. o
383 2 18 -7 -1 35042. 34904. 3784. o
383 1 -30 1 1 35042. 34904. 3784. o
384 2 18 -7 1 34538. 37833. 2121. o
384 1 -30 1 -1 34538. 37833. 2121. o
385 2 16 -6 -1 71931. 72309. 3476. o
385 1 -26 1 1 71931. 72309. 3476. o
386 2 16 -6 1 71687. 70357. 2755. o
386 1 -26 1 -1 71687. 70357. 2755. o
387 2 14 -5 -1 106583. 97938. 3784. o
387 1 -22 1 1 106583. 97938. 3784. o
388 2 14 -5 1 105589. 103186. 2649. o
388 1 -22 1 -1 105589. 103186. 2649. o
389 2 12 -4 -1 42714. 40030. 2817. o
389 1 -18 1 1 42714. 40030. 2817. o
390 2 12 -4 1 41992. 39236. 2817. o
390 1 -18 1 -1 41992. 39236. 2817. o
391 2 10 -3 -1 496076. 469371. 5268. o
391 1 -14 1 1 496076. 469371. 5268. o
392 2 10 -3 1 496226. 487189. 4886. o
392 1 -14 1 -1 496226. 487189. 4886. o
393 2 8 -2 -1 262388. 254761. 5047. o
393 1 -10 1 1 262388. 254761. 5047. o
394 2 8 -2 1 262447. 265928. 4893. o
394 1 -10 1 -1 262447. 265928. 4893. o
395 2 6 -1 -1 21182. 18611. 6958. o
395 1 -6 1 1 21182. 18611. 6958. o
396 2 6 -1 1 20809. 18550. 4823. o
396 1 -6 1 -1 20809. 18550. 4823. o
397 2 4 0 -1 635696. 629062. 10662. o
397 1 -2 1 1 635696. 629062. 10662. o
398 2 4 0 1 636423. 655728. 10298. o
398 1 -2 1 -1 636423. 655728. 10298. o
399 1 1 1 1 4941. 4699. 7689. <
400 1 1 1 -1 5127. 5492. 7017. <
401 2 2 1 -1 609832. 622899. 21133. o
401 1 2 1 1 609832. 622899. 21133. o
402 2 2 1 1 610299. 632052. 13463. o
402 1 2 1 -1 610299. 632052. 13463. o
403 1 3 1 1 319. 1587. 5919. <
404 1 3 1 -1 320. 793. 4088. <
405 1 4 1 1 3725. 3844. 5004. <
406 1 4 1 -1 3654. 3478. 3600. <
407 1 5 1 1 2348. 3356. 4393. <
408 1 5 1 -1 2354. 2014. 3356. <
409 1 6 1 1 17523. 16354. 5737. o
410 1 6 1 -1 17048. 15072. 5066. o
411 1 7 1 1 916. 2136. 4088. <
412 1 7 1 -1 975. 488. 3234. <
413 1 8 1 1 1102. 2746. 2990. <
414 1 8 1 -1 1160. 2075. 3173. <
415 1 9 1 1 77164. 71028. 2970. o
416 1 9 1 -1 76280. 72981. 3133. o
417 2 -2 3 -1 304763. 268735. 5351. o
417 1 10 1 1 304763. 268735. 5351. o
418 2 -2 3 1 304536. 277949. 5282. o
418 1 10 1 -1 304536. 277949. 5282. o
419 1 11 1 1 113052. 107457. 3044. o
420 1 11 1 -1 113367. 107274. 2929. o
421 1 12 1 1 1052. 1709. 2807. <
422 1 12 1 -1 1039. 2380. 2624. <
423 1 13 1 1 47440. 41677. 2649. o
424 1 13 1 -1 47411. 44972. 2696. o
425 2 -4 4 -1 454335. 434406. 5340. o
425 1 14 1 1 454335. 434406. 5340. o
426 2 -4 4 1 455095. 441118. 5211. o
426 1 14 1 -1 455095. 441118. 5211. o
427 1 15 1 1 119077. 107091. 2640. o
428 1 15 1 -1 119289. 112644. 2405. o
429 1 16 1 1 21353. 21967. 2134. o
430 1 16 1 -1 20494. 21784. 2132. o
431 1 17 1 1 10980. 12753. 2011. o
432 1 17 1 -1 10992. 11472. 2013. o
433 2 -6 5 -1 41663. 39846. 2936. o
433 1 18 1 1 41663. 39846. 2936. o
434 2 -6 5 1 40910. 46315. 2907. o
434 1 18 1 -1 40910. 46315. 2907. o
435 1 19 1 1 4192. 3844. 1831. o
436 1 19 1 -1 4155. 4027. 1831. o
437 1 20 1 1 4272. 5126. 1830. o
438 1 20 1 -1 4251. 3722. 1770. o
439 1 21 1 1 62923. 58336. 1930. o
440 1 21 1 -1 63286. 58702. 1930. o
441 2 -8 6 -1 101409. 92629. 3183. o
441 1 22 1 1 101409. 92629. 3183. o
442 2 -8 6 1 100784. 100867. 3050. o
442 1 22 1 -1 100784. 100867. 3050. o
443 1 23 1 1 39878. 36185. 2335. o
444 1 23 1 -1 40007. 37589. 1965. o
445 1 24 1 1 2250. 4210. 2257. <
446 1 24 1 -1 2347. 2868. 1891. <
447 1 25 1 1 42866. 40396. 2391. o
448 1 25 1 -1 42778. 38260. 2037. o
449 2 -10 7 -1 80606. 79449. 4521. o
449 1 26 1 1 80606. 79449. 4521. o
450 2 -10 7 1 80437. 80059. 3237. o
450 1 26 1 -1 80437. 80059. 3237. o
451 1 27 1 1 38284. 33866. 2882. o
452 1 27 1 -1 38525. 39053. 1950. o
453 1 28 1 1 676. -2075. 2746. <
454 1 28 1 -1 749. 1526. 1647. <
455 1 29 1 1 10136. 11106. 2684. o
456 1 29 1 -1 10194. 10496. 1647. o
457 2 -12 8 -1 32815. 29046. 4035. o
457 1 30 1 1 32815. 29046. 4035. o
458 2 -12 8 1 32280. 35392. 2306. o
458 1 30 1 -1 32280. 35392. 2306. o
459 1 31 1 1 3149. 1648. 2502. <
460 1 31 1 -1 3146. 8421. 1703. o
461 1 32 1 1 940. 0. 2624. <
462 1 32 1 -1 910. 1526. 1708. <
463 1 33 1 1 35475. 35636. 2745. o
464 1 33 1 -1 35374. 31426. 2031. o
465 2 -14 9 -1 9159. 12082. 4086. o
465 1 34 1 1 9159. 12082. 4086. o
466 2 -14 9 1 8784. 12143. 2865. o
466 1 34 1 -1 8784. 12143. 2865. o
467 1 35 1 1 10139. 9031. 2259. o
468 1 35 1 -1 10166. 11106. 1951. o
469 1 36 1 1 2911. 7750. 2376. o
470 1 36 1 -1 2878. 8299. 2070. o
471 2 24 -8 -1 63408. 57298. 2781. o
471 1 -36 2 1 63408. 57298. 2781. o
472 2 24 -8 1 63768. 52051. 2928. o
472 1 -36 2 -1 63768. 52051. 2928. o
473 2 22 -7 -1 7576. 2563. 3663. <
473 1 -32 2 1 7576. 2563. 3663. <
474 2 22 -7 1 7386. 15560. 2674. o
474 1 -32 2 -1 7386. 15560. 2674. o
475 2 20 -6 -1 43391. 42531. 3481. o
475 1 -28 2 1 43391. 42531. 3481. o
476 2 20 -6 1 44088. 45155. 2007. o
476 1 -28 2 -1 44088. 45155. 2007. o
477 2 18 -5 -1 30609. 31853. 3597. o
477 1 -24 2 1 30609. 31853. 3597. o
478 2 18 -5 1 31051. 32829. 2006. o
478 1 -24 2 -1 31051. 32829. 2006. o
479 2 16 -4 -1 74088. 71821. 3734. o
479 1 -20 2 1 74088. 71821. 3734. o
480 2 16 -4 1 71558. 70906. 2690. o
480 1 -20 2 -1 71558. 70906. 2690. o
481 2 14 -3 -1 391348. 392973. 5461. o
481 1 -16 2 1 391348. 392973. 5461. o
482 2 14 -3 1 392642. 372653. 4447. o
482 1 -16 2 -1 392642. 372653. 4447. o
483 2 12 -2 -1 609424. 565844. 8192. o
483 1 -12 2 1 609424. 565844. 8192. o
484 2 12 -2 1 609235. 581466. 5971. o
484 1 -12 2 -1 609235. 581466. 5971. o
485 2 10 -1 -1 111434. 106115. 6006. o
485 1 -8 2 1 111434. 106115. 6006. o
486 2 10 -1 1 110971. 108495. 3499. o
486 1 -8 2 -1 110971. 108495. 3499. o
487 2 8 0 -1 209033. 192154. 8345. o
487 1 -4 2 1 209033. 192154. 8345. o
488 2 8 0 1 209107. 191056. 5014. o
488 1 -4 2 -1 209107. 191056. 5014. o
489 1 1 2 1 6061. 6834. 6468. <
490 1 1 2 -1 5713. 5492. 7506. <
491 1 2 2 1 11965. 7689. 6287. <
492 1 2 2 -1 12232. 12082. 6834. <
493 1 3 2 1 17928. 17574. 5675. o
494 1 3 2 -1 18237. 16537. 4822. o
495 2 4 2 -1 231557. 213267. 8908. o
495 1 4 2 1 231557. 213267. 8908. o
496 2 4 2 1 231514. 220040. 8683. o
496 1 4 2 -1 231514. 220040. 8683. o
497 1 5 2 1 65460. 54125. 5099. o
498 1 5 2 -1 65582. 55651. 3523. o
499 1 6 2 1 10811. 11594. 4393. o
500 1 6 2 -1 10658. 10984. 3112. o
501 1 7 2 1 26609. 23554. 3606. o
502 1 7 2 -1 27293. 23859. 2937. o
503 2 2 3 -1 112451. 100989. 5369. o
503 1 8 2 1 112451. 100989. 5369. o
504 2 2 3 1 111795. 103247. 5354. o
504 1 8 2 -1 111795. 103247. 5354. o
505 1 9 2 1 4699. 6468. 3355. <
506 1 9 2 -1 4572. 5980. 3050. <
507 1 10 2 1 5676. 3844. 3113. <
508 1 10 2 -1 5801. 5248. 2746. <
509 1 11 2 1 155571. 136015. 3456. o
510 1 11 2 -1 156718. 143154. 2991. o
511 1 12 2 1 501770. 477669. 5812. o
512 1 12 2 -1 501528. 509400. 5421. o
513 1 13 2 1 33390. 33928. 2988. o
514 1 13 2 -1 33403. 31914. 2629. o
515 1 14 2 1 1373. 1770. 2929. <
516 1 14 2 -1 1359. 1159. 2319. <
517 1 15 2 1 35532. 37162. 2985. o
518 1 15 2 -1 36403. 35575. 2444. o
519 2 -2 5 -1 408292. 389312. 4883. o
519 1 16 2 1 408292. 389312. 4883. o
520 2 -2 5 1 409576. 406214. 4596. o
520 1 16 2 -1 409576. 406214. 4596. o
521 1 17 2 1 38076. 38138. 2685. o
522 1 17 2 -1 38135. 37467. 2322. o
523 1 18 2 1 12291. 14096. 2438. o
524 1 18 2 -1 12220. 12448. 2013. o
525 1 19 2 1 3246. 4821. 2318. o
526 1 19 2 -1 3050. 5492. 1951. o
527 2 -4 6 -1 86060. 75910. 3300. o
527 1 20 2 1 86060. 75910. 3300. o
528 2 -4 6 1 83306. 82317. 3302. o
528 1 20 2 -1 83306. 82317. 3302. o
529 1 21 2 1 7681. 5004. 2138. o
530 1 21 2 -1 7466. 10129. 1766. o
531 1 22 2 1 25511. 23554. 2385. o
532 1 22 2 -1 25286. 23737. 2080. o
533 1 23 2 1 1434. 1587. 2319. <
534 1 23 2 -1 1391. 3478. 1891. <
535 2 -6 7 -1 30827. 33805. 2981. o
535 1 24 2 1 30827. 33805. 2981. o
536 2 -6 7 1 31259. 29656. 2994. o
536 1 24 2 -1 31259. 29656. 2994. o
537 1 25 2 1 1431. 2258. 2746. <
538 1 25 2 -1 1412. 1831. 1647. <
539 1 26 2 1 3669. 6041. 2562. o
540 1 26 2 -1 3687. 5736. 1585. o
541 1 27 2 1 6931. 4332. 2686. <
542 1 27 2 -1 7083. 7445. 1769. o
543 2 -8 8 -1 44734. 47962. 4323. o
543 1 28 2 1 44734. 47962. 4323. o
544 2 -8 8 1 45405. 46437. 3108. o
544 1 28 2 -1 45405. 46437. 3108. o
545 1 29 2 1 1490. 2563. 2624. <
546 1 29 2 -1 1412. 3600. 1891. <
547 1 30 2 1 1827. 2624. 2746. <
548 1 30 2 -1 1844. 4760. 1707. o
549 1 31 2 1 2628. 5492. 2806. <
550 1 31 2 -1 2686. 5248. 1829. o
551 2 -10 9 -1 7654. 8787. 4454. <
551 1 32 2 1 7654. 8787. 4454. <
552 2 -10 9 1 7467. 12631. 2435. o
552 1 32 2 -1 7467. 12631. 2435. o
553 1 33 2 1 728. 1220. 2258. <
554 1 33 2 -1 778. 2197. 2013. <
555 1 34 2 1 5160. 9580. 2254. o
556 1 34 2 -1 5255. 5858. 2013. o
557 1 35 2 1 5139. 4638. 2319. <
558 1 35 2 -1 5174. 4821. 1892. o
559 2 -12 10 -1 63070. 53820. 4789. o
559 1 36 2 1 63070. 53820. 4789. o
560 2 -12 10 1 63443. 58702. 3318. o
560 1 36 2 -1 63443. 58702. 3318. o
561 2 26 -7 -1 16749. 11594. 2692. o
561 1 -34 3 1 16749. 11594. 2692. o
562 2 26 -7 1 16227. 6468. 2573. o
562 1 -34 3 -1 16227. 6468. 2573. o
563 2 24 -6 -1 18808. 18855. 2502. o
563 1 -30 3 1 18808. 18855. 2502. o
564 2 24 -6 1 18603. 15865. 2629. o
564 1 -30 3 -1 18603. 15865. 2629. o
565 2 22 -5 -1 162233. 150538. 4383. o
565 1 -26 3 1 162233. 150538. 4383. o
566 2 22 -5 1 163108. 165488. 3017. o
566 1 -26 3 -1 163108. 165488. 3017. o
567 2 20 -4 -1 42227. 38443. 3855. o
567 1 -22 3 1 42227. 38443. 3855. o
568 2 20 -4 1 41546. 41616. 2135. o
568 1 -22 3 -1 41546. 41616. 2135. o
569 2 18 -3 -1 118315. 119722. 4016. o
569 1 -18 3 1 118315. 119722. 4016. o
570 2 18 -3 1 118176. 117038. 2395. o
570 1 -18 3 -1 118176. 117038. 2395. o
571 2 16 -2 -1 202774. 191117. 5183. o
571 1 -14 3 1 202774. 191117. 5183. o
572 2 16 -2 1 201879. 185564. 3089. o
572 1 -14 3 -1 201879. 185564. 3089. o
573 2 14 -1 -1 474015. 467174. 7198. o
573 1 -10 3 1 474015. 467174. 7198. o
574 2 14 -1 1 474829. 453200. 4853. o
574 1 -10 3 -1 474829. 453200. 4853. o
575 2 12 0 -1 17209. 13302. 4885. o
575 1 -6 3 1 17209. 13302. 4885. o
576 2 12 0 1 16793. 12204. 3361. o
576 1 -6 3 -1 16793. 12204. 3361. o
577 2 10 1 -1 306604. 276118. 5900. o
577 1 -2 3 1 306604. 276118. 5900. o
578 2 10 1 1 307472. 299855. 9705. o
578 1 -2 3 -1 307472. 299855. 9705. o
579 1 1 3 1 483. 2441. 4271. <
580 1 1 3 -1 553. 2319. 7688. <
581 2 8 2 -1 265388. 271908. 13022. o
581 1 2 3 1 265388. 271908. 13022. o
582 2 8 2 1 266347. 308032. 18188. o
582 1 2 3 -1 266347. 308032. 18188. o
583 1 3 3 1 46379. 44545. 7447. o
584 1 3 3 -1 46571. 46132. 7567. o
585 1 4 3 1 23329. 20320. 7691. o
586 1 4 3 -1 23780. 20320. 4459. o
587 1 5 3 1 16656. 15987. 5675. o
588 1 5 3 -1 16584. 16170. 3723. o
589 2 6 3 -1 10592. 9092. 6225. <
589 1 6 3 1 10592. 9092. 6225. <
590 2 6 3 1 10491. 11716. 5979. <
590 1 6 3 -1 10491. 11716. 5979. <
591 1 7 3 1 6953. 8238. 4027. o
592 1 7 3 -1 7160. 6285. 2868. o
593 1 8 3 1 16348. 9458. 3972. o
594 1 8 3 -1 16507. 14279. 2810. o
595 1 9 3 1 70104. 64316. 3750. o
596 1 9 3 -1 72309. 63950. 2680. o
597 2 4 4 -1 426910. 410852. 6387. o
597 1 10 3 1 426910. 410852. 6387. o
598 2 4 4 1 428214. 432697. 6017. o
598 1 10 3 -1 428214. 432697. 6017. o
599 1 11 3 1 33890. 30998. 3059. o
600 1 11 3 -1 33553. 32890. 2382. o
601 1 12 3 1 45096. 46742. 3044. o
602 1 12 3 -1 45528. 47718. 2368. o
603 1 13 3 1 111773. 98792. 3284. o
604 1 13 3 -1 112785. 101965. 2447. o
605 2 2 5 -1 167799. 154199. 4523. o
605 1 14 3 1 167799. 154199. 4523. o
606 2 2 5 1 167280. 157738. 4187. o
606 1 14 3 -1 167280. 157738. 4187. o
607 1 15 3 1 12820. 12143. 2747. o
608 1 15 3 -1 13333. 11167. 1956. o
609 1 16 3 1 15648. 16842. 2378. o
610 1 16 3 -1 15739. 14523. 1894. o
611 1 17 3 1 3197. 6102. 2439. o
612 1 17 3 -1 3065. 2197. 1709. <
613 1 18 3 1 97438. 98060. 3412. o
614 1 18 3 -1 97261. 101660. 3321. o
615 1 19 3 1 23318. 25568. 2435. o
616 1 19 3 -1 23281. 26849. 1756. o
617 1 20 3 1 11206. 12082. 2562. o
618 1 20 3 -1 10984. 9641. 1772. o
619 1 21 3 1 36579. 36918. 2439. o
620 1 21 3 -1 36152. 39114. 1752. o
621 2 -2 7 -1 44767. 43386. 3422. o
621 1 22 3 1 44767. 43386. 3422. o
622 2 -2 7 1 44071. 45521. 3045. o
622 1 22 3 -1 44071. 45521. 3045. o
623 1 23 3 1 16330. 15255. 2382. o
624 1 23 3 -1 16284. 18489. 1764. o
625 1 24 3 1 6568. 8421. 2745. o
626 1 24 3 -1 6476. 6041. 1770. o
627 1 25 3 1 9518. 7872. 2869. o
628 1 25 3 -1 9613. 11533. 2011. o
629 2 -4 8 -1 148144. 154870. 5072. o
629 1 26 3 1 148144. 154870. 5072. o
630 2 -4 8 1 149036. 151331. 3513. o
630 1 26 3 -1 149036. 151331. 3513. o
631 1 27 3 1 48274. 49976. 3166. o
632 1 27 3 -1 47466. 51562. 2110. o
633 1 28 3 1 32856. 35575. 2798. o
634 1 28 3 -1 32520. 33378. 1949. o
635 1 29 3 1 5988. 4271. 2686. <
636 1 29 3 -1 5834. 7750. 1706. o
637 2 -6 9 -1 16351. 15316. 4883. o
637 1 30 3 1 16351. 15316. 4883. o
638 2 -6 9 1 16154. 17757. 2377. o
638 1 30 3 -1 16154. 17757. 2377. o
639 1 31 3 1 6373. 4760. 2259. o
640 1 31 3 -1 6398. 8604. 1828. o
641 1 32 3 1 363. 2746. 2318. <
642 1 32 3 -1 335. 3783. 2074. <
643 1 33 3 1 374. 2624. 2318. <
644 1 33 3 -1 382. 1098. 1953. <
645 2 -8 10 -1 16031. 20320. 4511. o
645 1 34 3 1 16031. 20320. 4511. o
646 2 -8 10 1 15519. 14584. 3418. o
646 1 34 3 -1 15519. 14584. 3418. o
647 1 35 3 1 1524. 7750. 2376. o
648 1 35 3 -1 1489. 9031. 2130. o
649 2 28 -6 -1 12199. 18672. 2919. o
649 1 -32 4 1 12199. 18672. 2919. o
650 2 28 -6 1 11901. 12997. 2867. o
650 1 -32 4 -1 11901. 12997. 2867. o
651 2 26 -5 -1 26240. 30327. 2612. o
651 1 -28 4 1 26240. 30327. 2612. o
652 2 26 -5 1 26425. 29046. 2739. o
652 1 -28 4 -1 26425. 29046. 2739. o
653 2 24 -4 -1 193244. 190201. 5035. o
653 1 -24 4 1 193244. 190201. 5035. o
654 2 24 -4 1 193206. 185503. 3410. o
654 1 -24 4 -1 193206. 185503. 3410. o
655 2 22 -3 -1 15769. 12448. 4030. o
655 1 -20 4 1 15769. 12448. 4030. o
656 2 22 -3 1 15653. 13608. 2993. o
656 1 -20 4 -1 15653. 13608. 2993. o
657 2 20 -2 -1 64096. 65719. 4509. o
657 1 -16 4 1 64096. 65719. 4509. o
658 2 20 -2 1 66304. 67977. 3041. o
658 1 -16 4 -1 66304. 67977. 3041. o
659 2 18 -1 -1 25080. 27764. 4633. o
659 1 -12 4 1 25080. 27764. 4633. o
660 2 18 -1 1 25207. 22639. 3483. o
660 1 -12 4 -1 25207. 22639. 3483. o
661 2 16 0 -1 48920. 47474. 3423. o
661 1 -8 4 1 48920. 47474. 3423. o
662 2 16 0 1 49538. 52966. 4016. o
662 1 -8 4 -1 49538. 52966. 4016. o
663 2 14 1 -1 282129. 273311. 5609. o
663 1 -4 4 1 282129. 273311. 5609. o
664 2 14 1 1 280123. 282709. 5456. o
664 1 -4 4 -1 280123. 282709. 5456. o
665 1 1 4 1 183568. 182086. 5566. o
666 1 1 4 -1 182921. 174580. 8104. o
667 1 2 4 1 6053. 5553. 4272. <
668 1 2 4 -1 5811. 7200. 5247. <
669 1 3 4 1 80926. 79327. 4584. o
670 1 3 4 -1 80854. 79693. 4887. o
671 2 10 3 -1 276672. 291068. 12482. o
671 1 4 4 1 276672. 291068. 12482. o
672 2 10 3 1 274553. 293936. 11835. o
672 1 4 4 -1 274553. 293936. 11835. o
673 1 5 4 1 109013. 106664. 4956. o
674 1 5 4 -1 109456. 111607. 4195. o
675 1 6 4 1 68168. 59495. 4426. o
676 1 6 4 -1 68427. 63400. 4535. o
677 1 7 4 1 21387. 19527. 4152. o
678 1 7 4 -1 20684. 20320. 3662. o
679 2 8 4 -1 46464. 49000. 8783. o
679 1 8 4 1 46464. 49000. 8783. o
680 2 8 4 1 47134. 42104. 5563. o
680 1 8 4 -1 47134. 42104. 5563. o
681 1 9 4 1 20553. 20930. 4149. o
682 1 9 4 -1 20090. 20259. 2990. o
683 1 10 4 1 54329. 53332. 3604. o
684 1 10 4 -1 55089. 53881. 2752. o
685 1 11 4 1 6773. 5553. 3052. <
686 1 11 4 -1 6633. 8604. 2561. o
687 2 6 5 -1 19458. 18794. 3418. o
687 1 12 4 1 19458. 18794. 3418. o
688 2 6 5 1 19404. 19954. 3783. o
688 1 12 4 -1 19404. 19954. 3783. o
689 1 13 4 1 10449. 9763. 2869. o
690 1 13 4 -1 10646. 10129. 2380. o
691 1 14 4 1 37955. 39663. 2923. o
692 1 14 4 -1 38546. 35453. 2392. o
693 1 15 4 1 6988. 8726. 2684. o
694 1 15 4 -1 7689. 9763. 2194. o
695 2 4 6 -1 74414. 67855. 3634. o
695 1 16 4 1 74414. 67855. 3634. o
696 2 4 6 1 75562. 66390. 3707. o
696 1 16 4 -1 75562. 66390. 3707. o
697 1 17 4 1 26827. 27032. 2501. o
698 1 17 4 -1 26678. 27276. 2134. o
699 1 18 4 1 6272. 5126. 2564. <
700 1 18 4 -1 6249. 6529. 2074. o
701 1 19 4 1 1942. 2136. 2380. <
702 1 19 4 -1 2088. 1892. 2136. <
703 2 2 7 -1 11217. 12631. 3965. o
703 1 20 4 1 11217. 12631. 3965. o
704 2 2 7 1 10987. 13302. 2987. o
704 1 20 4 -1 10987. 13302. 2987. o
705 1 21 4 1 10236. 11594. 2806. o
706 1 21 4 -1 10499. 13119. 2132. o
707 1 22 4 1 10160. 9641. 3235. o
708 1 22 4 -1 10231. 8482. 2138. o
709 1 23 4 1 68900. 72432. 3336. o
710 1 23 4 -1 69122. 72554. 2229. o
711 1 24 4 1 159102. 158532. 4887. o
712 1 24 4 -1 159054. 167990. 3426. o
713 1 25 4 1 19490. 20015. 2379. o
714 1 25 4 -1 19398. 17086. 2019. o
715 1 26 4 1 478. -1770. 2196. <
716 1 26 4 -1 488. 2685. 1830. <
717 1 27 4 1 6672. 5492. 2381. o
718 1 27 4 -1 6837. 5492. 1893. o
719 2 -2 9 -1 27067. 29900. 4999. o
719 1 28 4 1 27067. 29900. 4999. o
720 2 -2 9 1 27295. 28924. 2558. o
720 1 28 4 -1 27295. 28924. 2558. o
721 1 29 4 1 11070. 14584. 2313. o
722 1 29 4 -1 10877. 10801. 1953. o
723 1 30 4 1 5750. 5370. 2258. o
724 1 30 4 -1 5682. 6285. 1769. o
725 1 31 4 1 2578. 4027. 2257. <
726 1 31 4 -1 2534. 6163. 2011. o
727 2 -4 10 -1 12489. 10679. 4334. o
727 1 32 4 1 12489. 10679. 4334. o
728 2 -4 10 1 12215. 12326. 2868. o
728 1 32 4 -1 12215. 12326. 2868. o
729 1 33 4 1 8149. 8665. 2318. o
730 1 33 4 -1 8061. 11289. 2070. o
731 1 34 4 1 4662. 7933. 1950. o
732 1 34 4 -1 4683. 7506. 2011. o
733 2 30 -5 -1 36925. 39724. 3164. o
733 1 -30 5 1 36925. 39724. 3164. o
734 2 30 -5 1 36792. 32463. 3185. o
734 1 -30 5 -1 36792. 32463. 3185. o
735 2 28 -4 -1 8456. 3783. 2992. <
735 1 -26 5 1 8456. 3783. 2992. <
736 2 28 -4 1 8424. 6895. 2869. o
736 1 -26 5 -1 8424. 6895. 2869. o
737 2 26 -3 -1 106385. 107091. 3350. o
737 1 -22 5 1 106385. 107091. 3350. o
738 2 26 -3 1 105903. 110752. 3190. o
738 1 -22 5 -1 105903. 110752. 3190. o
739 2 24 -2 -1 8647. 7933. 2869. o
739 1 -18 5 1 8647. 7933. 2869. o
740 2 24 -2 1 8459. 10923. 2805. o
740 1 -18 5 -1 8459. 10923. 2805. o
741 2 22 -1 -1 98290. 106664. 3597. o
741 1 -14 5 1 98290. 106664. 3597. o
742 2 22 -1 1 99060. 101233. 3461. o
742 1 -14 5 -1 99060. 101233. 3461. o
743 2 20 0 -1 53925. 51440. 3671. o
743 1 -10 5 1 53925. 51440. 3671. o
744 2 20 0 1 53512. 51990. 3302. o
744 1 -10 5 -1 53512. 51990. 3302. o
745 2 18 1 -1 20010. 20564. 3233. o
745 1 -6 5 1 20010. 20564. 3233. o
746 2 18 1 1 20278. 21784. 3598. o
746 1 -6 5 -1 20278. 21784. 3598. o
747 2 16 2 -1 280145. 269162. 6650. o
747 1 -2 5 1 280145. 269162. 6650. o
748 2 16 2 1 279307. 273250. 6114. o
748 1 -2 5 -1 279307. 273250. 6114. o
749 1 1 5 1 48625. 52295. 6094. o
750 1 1 5 -1 48851. 49732. 4147. o
751 2 14 3 1 228054. 248415. 13818. o
751 1 2 5 -1 228054. 248415. 13818. o
752 1 3 5 1 62308. 61692. 4274. o
753 1 3 5 -1 62789. 63889. 4450. o
754 1 4 5 1 13993. 13180. 3906. o
755 1 4 5 -1 13368. 15072. 4026. o
756 1 5 5 1 14115. 16537. 3964. o
757 1 5 5 -1 14254. 14767. 3783. o
758 2 12 4 -1 15446. 19588. 10127. <
758 1 6 5 1 15446. 19588. 10127. <
759 2 12 4 1 15565. 14889. 8238. <
759 1 6 5 -1 15565. 14889. 8238. <
760 1 7 5 1 11396. 11716. 4210. o
761 1 7 5 -1 11205. 14645. 3108. o
762 1 8 5 1 30067. 27337. 4154. o
763 1 8 5 -1 29379. 32219. 4266. o
764 1 9 5 1 2693. 2868. 3783. <
765 1 9 5 -1 2814. 4393. 3173. <
766 2 10 5 -1 60887. 59556. 9155. o
766 1 10 5 1 60887. 59556. 9155. o
767 2 10 5 1 60586. 57298. 4588. o
767 1 10 5 -1 60586. 57298. 4588. o
768 1 11 5 1 8313. 10618. 3354. o
769 1 11 5 -1 8341. 8055. 2441. o
770 1 12 5 1 19935. 19649. 2991. o
771 1 12 5 -1 19735. 20503. 2317. o
772 1 13 5 1 13395. 13486. 2929. o
773 1 13 5 -1 13364. 14157. 2195. o
774 2 8 6 -1 91414. 87565. 6787. o
774 1 14 5 1 91414. 87565. 6787. o
775 2 8 6 1 92241. 82134. 4205. o
775 1 14 5 -1 92241. 82134. 4205. o
776 1 15 5 1 72514. 73469. 2923. o
777 1 15 5 -1 72682. 73042. 2499. o
778 1 16 5 1 68217. 67855. 2687. o
779 1 16 5 -1 68250. 68404. 2440. o
780 1 17 5 1 28138. 31548. 2736. o
781 1 17 5 -1 28238. 29534. 2314. o
782 2 6 7 -1 2751. 366. 5004. <
782 1 18 5 1 2751. 366. 5004. <
783 2 6 7 1 2663. 2502. 3478. <
783 1 18 5 -1 2663. 2502. 3478. <
784 1 19 5 1 22303. 20503. 2628. o
785 1 19 5 -1 22544. 23676. 2316. o
786 1 20 5 1 8208. 9946. 2561. o
787 1 20 5 -1 8333. 6651. 1954. o
788 1 21 5 1 25312. 25751. 2562. o
789 1 21 5 -1 25223. 30388. 1994. o
790 2 4 8 -1 76889. 85612. 4596. o
790 1 22 5 1 76889. 85612. 4596. o
791 2 4 8 1 76661. 80669. 2777. o
791 1 22 5 -1 76661. 80669. 2777. o
792 1 23 5 1 17847. 18306. 2562. o
793 1 23 5 -1 17973. 17940. 1892. o
794 1 24 5 1 16272. 18855. 2375. o
795 1 24 5 -1 16240. 19222. 1945. o
796 1 25 5 1 17453. 19832. 2375. o
797 1 25 5 -1 17385. 16903. 1893. o
798 2 2 9 -1 4382. 2441. 5309. <
798 1 26 5 1 4382. 2441. 5309. <
799 2 2 9 1 4432. 4577. 2563. <
799 1 26 5 -1 4432. 4577. 2563. <
800 1 27 5 1 17623. 14706. 2689. o
801 1 27 5 -1 17742. 17391. 1954. o
802 1 28 5 1 2098. 5309. 2622. o
803 1 28 5 -1 2106. 5370. 2073. o
804 1 29 5 1 12. 7261. 2559. o
805 1 29 5 -1 19. 305. 2014. <
806 1 30 5 1 30430. 30083. 5675. o
807 1 30 5 -1 30260. 37100. 3337. o
808 1 31 5 1 4830. 8909. 2499. o
809 1 31 5 -1 4764. 6895. 2256. o
810 1 32 5 1 4829. 9214. 2254. o
811 1 32 5 -1 4712. 7994. 2133. o
812 2 32 -4 -1 5330. 6346. 2989. o
812 1 -28 6 1 5330. 6346. 2989. o
813 2 32 -4 1 5552. 6956. 2928. o
813 1 -28 6 -1 5552. 6956. 2928. o
814 2 30 -3 -1 23700. 24042. 2928. o
814 1 -24 6 1 23700. 24042. 2928. o
815 2 30 -3 1 23796. 24530. 3111. o
815 1 -24 6 -1 23796. 24530. 3111. o
816 2 28 -2 -1 40734. 32341. 3137. o
816 1 -20 6 1 40734. 32341. 3137. o
817 2 28 -2 1 40760. 41860. 3352. o
817 1 -20 6 -1 40760. 41860. 3352. o
818 2 26 -1 -1 46814. 43569. 3124. o
818 1 -16 6 1 46814. 43569. 3124. o
819 2 26 -1 1 46873. 41616. 3132. o
819 1 -16 6 -1 46873. 41616. 3132. o
820 2 24 0 -1 125054. 118929. 3835. o
820 1 -12 6 1 125054. 118929. 3835. o
821 2 24 0 1 124626. 125519. 3470. o
821 1 -12 6 -1 124626. 125519. 3470. o
822 2 22 1 -1 75833. 75605. 3662. o
822 1 -8 6 1 75833. 75605. 3662. o
823 2 22 1 1 74891. 79266. 3575. o
823 1 -8 6 -1 74891. 79266. 3575. o
824 2 20 2 -1 118200. 117404. 4582. o
824 1 -4 6 1 118200. 117404. 4582. o
825 2 20 2 1 121428. 120638. 4216. o
825 1 -4 6 -1 121428. 120638. 4216. o
826 1 1 6 1 28972. 22761. 7267. o
827 1 1 6 -1 28967. 25507. 4216. o
828 1 2 6 1 70092. 68404. 5863. o
829 1 2 6 -1 71018. 67306. 4470. o
830 1 3 6 1 5830. 5614. 4027. <
831 1 3 6 -1 5320. 6102. 4027. <
832 1 5 6 1 29138. 28558. 3784. o
833 1 5 6 -1 29092. 31426. 3412. o
834 1 6 6 1 30788. 34660. 3529. o
835 1 6 6 -1 30706. 31304. 3355. o
836 1 7 6 1 12445. 12875. 3234. o
837 1 7 6 -1 12488. 13364. 3233. o
838 2 14 5 -1 74119. 79083. 10852. o
838 1 8 6 1 74119. 79083. 10852. o
839 2 14 5 1 72866. 65231. 9229. o
839 1 8 6 -1 72866. 65231. 9229. o
840 1 9 6 1 26153. 28375. 3657. o
841 1 9 6 -1 26724. 26056. 3114. o
842 1 10 6 1 40. 2624. 3661. <
843 1 10 6 -1 21. 122. 2807. <
844 1 11 6 1 115400. 94521. 4343. o
845 1 11 6 -1 115074. 109471. 4189. o
846 2 12 6 -1 44074. 52234. 10180. o
846 1 12 6 1 44074. 52234. 10180. o
847 2 12 6 1 43984. 49305. 5235. o
847 1 12 6 -1 43984. 49305. 5235. o
848 1 13 6 1 19159. 20381. 3598. o
849 1 13 6 -1 18965. 19954. 2927. o
850 1 14 6 1 10219. 11472. 3477. o
851 1 14 6 -1 10372. 9824. 2685. o
852 1 15 6 1 59893. 64926. 3454. o
853 1 15 6 -1 60682. 62424. 2735. o
854 2 10 7 -1 48780. 51257. 7867. o
854 1 16 6 1 48780. 51257. 7867. o
855 2 10 7 1 48862. 41189. 3868. o
855 1 16 6 -1 48862. 41189. 3868. o
856 1 17 6 1 53214. 50891. 3305. o
857 1 17 6 -1 53179. 54858. 2431. o
858 1 18 6 1 21734. 18733. 2873. o
859 1 18 6 -1 21755. 20503. 2322. o
860 1 19 6 1 5278. 4638. 2929. <
861 1 19 6 -1 5198. 3844. 2136. <
862 2 8 8 -1 41248. 41921. 6101. o
862 1 20 6 1 41248. 41921. 6101. o
863 2 8 8 1 41366. 34294. 3013. o
863 1 20 6 -1 41366. 34294. 3013. o
864 1 21 6 1 39348. 38809. 2809. o
865 1 21 6 -1 38648. 39785. 2130. o
866 1 22 6 1 9730. 12387. 2560. o
867 1 22 6 -1 9908. 10434. 1952. o
868 1 23 6 1 4008. 4821. 2746. <
869 1 23 6 -1 3963. 3173. 2258. <
870 2 6 9 -1 22676. 24896. 5611. o
870 1 24 6 1 22676. 24896. 5611. o
871 2 6 9 1 22727. 23676. 3599. o
871 1 24 6 -1 22727. 23676. 3599. o
872 1 25 6 1 15150. 12753. 2688. o
873 1 25 6 -1 15338. 16048. 2317. o
874 1 26 6 1 16618. 16537. 2868. o
875 1 26 6 -1 16890. 20381. 2372. o
876 1 27 6 1 2301. 4271. 2623. <
877 1 27 6 -1 2375. 5126. 2317. o
878 2 4 10 -1 3866. 5675. 3905. <
878 1 28 6 1 3866. 5675. 3905. <
879 2 4 10 1 4020. 4271. 3844. <
879 1 28 6 -1 4020. 4271. 3844. <
880 1 29 6 1 629. 4027. 2318. <
881 1 29 6 -1 591. 6163. 2255. o
882 1 30 6 1 2006. 5553. 2256. o
883 1 30 6 -1 1981. 6529. 2316. o
884 2 34 -3 -1 8535. 9824. 3172. o
884 1 -26 7 1 8535. 9824. 3172. o
885 2 34 -3 1 8726. 7384. 2991. o
885 1 -26 7 -1 8726. 7384. 2991. o
886 2 32 -2 -1 5055. 6651. 3050. o
886 1 -22 7 1 5055. 6651. 3050. o
887 2 32 -2 1 5129. 5431. 3051. <
887 1 -22 7 -1 5129. 5431. 3051. <
888 2 30 -1 -1 26882. 28680. 3047. o
888 1 -18 7 1 26882. 28680. 3047. o
889 2 30 -1 1 26866. 27337. 3172. o
889 1 -18 7 -1 26866. 27337. 3172. o
890 2 28 0 -1 41542. 36978. 3431. o
890 1 -14 7 1 41542. 36978. 3431. o
891 2 28 0 1 41392. 37955. 3124. o
891 1 -14 7 -1 41392. 37955. 3124. o
892 2 26 1 -1 87082. 87931. 3900. o
892 1 -10 7 1 87082. 87931. 3900. o
893 2 26 1 1 86795. 92507. 3808. o
893 1 -10 7 -1 86795. 92507. 3808. o
894 2 24 2 -1 9561. 9885. 4149. o
894 1 -6 7 1 9561. 9885. 4149. o
895 2 24 2 1 9423. 11899. 3964. o
895 1 -6 7 -1 9423. 11899. 3964. o
896 2 22 3 -1 27296. 21357. 7693. o
896 1 -2 7 1 27296. 21357. 7693. o
897 2 22 3 1 27249. 20015. 5561. o
897 1 -2 7 -1 27249. 20015. 5561. o
898 1 1 7 -1 6827. 8604. 6285. <
899 1 3 7 1 6230. 6956. 5614. <
900 1 3 7 -1 6283. 7017. 4759. <
901 1 4 7 1 7372. 8238. 4881. <
902 1 4 7 -1 7167. 10679. 4330. o
903 1 5 7 1 17288. 19893. 4452. o
904 1 5 7 -1 17193. 18855. 4147. o
905 1 7 7 1 4992. 3112. 3845. <
906 1 7 7 -1 5040. 4210. 3845. <
907 1 8 7 1 39377. 37223. 3911. o
908 1 8 7 -1 39238. 36918. 3729. o
909 1 9 7 1 68818. 73652. 3943. o
910 1 9 7 -1 69025. 76032. 3808. o
911 1 11 7 1 24293. 23920. 3540. o
912 1 11 7 -1 24428. 26361. 3230. o
913 1 12 7 1 27806. 31426. 3959. o
914 1 12 7 -1 27707. 31853. 3101. o
915 1 13 7 1 11941. 12143. 3661. o
916 1 13 7 -1 11914. 10984. 3174. o
917 2 14 7 -1 24059. 21540. 6166. o
917 1 14 7 1 24059. 21540. 6166. o
918 1 15 7 1 28884. 27520. 3542. o
919 1 15 7 -1 29342. 29839. 4393. o
920 1 16 7 1 3505. 4882. 3173. <
921 1 16 7 -1 3588. 5492. 3661. <
922 1 17 7 1 10850. 14279. 3169. o
923 1 17 7 -1 10940. 10740. 3478. o
924 2 12 8 -1 22619. 25446. 5244. o
924 1 18 7 1 22619. 25446. 5244. o
925 2 12 8 1 22485. 24408. 5856. o
925 1 18 7 -1 22485. 24408. 5856. o
926 1 19 7 1 7814. 9458. 2928. o
927 1 19 7 -1 7596. 6895. 2990. o
928 1 20 7 1 30288. 31365. 2804. o
929 1 20 7 -1 29843. 33439. 2980. o
930 1 21 7 1 6733. 10557. 2681. o
931 1 21 7 -1 6810. 6773. 2624. o
932 2 10 9 -1 4516. 549. 4333. <
932 1 22 7 1 4516. 549. 4333. <
933 2 10 9 1 4548. 5126. 4515. <
933 1 22 7 -1 4548. 5126. 4515. <
934 1 23 7 1 218. 3966. 2684. <
935 1 23 7 -1 243. 2441. 2624. <
936 1 24 7 1 9926. 12265. 2560. o
937 1 24 7 -1 10086. 12936. 2682. o
938 1 25 7 1 2669. 6590. 2500. o
939 1 25 7 -1 2711. 5187. 2440. o
940 2 8 10 -1 5756. 13242. 4083. o
940 1 26 7 1 5756. 13242. 4083. o
941 2 8 10 1 5831. 7445. 3721. <
941 1 26 7 -1 5831. 7445. 3721. <
942 1 27 7 1 11395. 10252. 2625. o
943 1 27 7 -1 11476. 11106. 2624. o
944 2 34 -1 -1 8482. 9458. 3050. o
944 1 -20 8 1 8482. 9458. 3050. o
945 2 34 -1 1 8499. 9946. 3233. o
945 1 -20 8 -1 8499. 9946. 3233. o
946 2 32 0 -1 10014. 8787. 3479. o
946 1 -16 8 1 10014. 8787. 3479. o
947 2 32 0 1 10280. 8421. 3235. o
947 1 -16 8 -1 10280. 8421. 3235. o
948 2 30 1 -1 16396. 16109. 3356. o
948 1 -12 8 1 16396. 16109. 3356. o
949 2 30 1 1 16528. 16414. 3173. o
949 1 -12 8 -1 16528. 16414. 3173. o
950 2 28 2 -1 46570. 41677. 4285. o
950 1 -8 8 1 46570. 41677. 4285. o
951 2 28 2 1 46718. 42653. 3857. o
951 1 -8 8 -1 46718. 42653. 3857. o
952 2 26 3 -1 40753. 37528. 6534. o
952 1 -4 8 1 40753. 37528. 6534. o
953 2 26 3 1 40204. 38626. 5617. o
953 1 -4 8 -1 40204. 38626. 5617. o
954 1 1 8 -1 12237. 15377. 14278. <
955 1 2 8 -1 27911. 29351. 6833. o
956 1 3 8 1 57526. 56383. 9887. o
957 1 3 8 -1 58404. 51196. 6241. o
958 1 5 8 1 34861. 35758. 5551. o
959 1 5 8 -1 34613. 37772. 4936. o
960 1 6 8 1 16664. 14218. 4640. o
961 1 6 8 -1 16740. 15743. 4211. o
962 1 7 8 1 3009. 2746. 4088. <
963 1 7 8 -1 2982. 2197. 3600. <
964 1 9 8 1 24886. 25140. 3600. o
965 1 9 8 -1 24396. 25934. 3475. o
966 1 10 8 1 24075. 25262. 3476. o
967 1 10 8 -1 24305. 23798. 3235. o
968 1 11 8 1 13432. 15560. 3415. o
969 1 11 8 -1 13400. 14645. 3049. o
970 1 13 8 1 53580. 56688. 3465. o
971 1 13 8 -1 53927. 52112. 3303. o
972 1 14 8 1 18474. 15316. 2995. o
973 1 14 8 -1 18848. 18184. 3174. o
974 1 15 8 1 14019. 14645. 3600. o
975 1 15 8 -1 13605. 16170. 3475. o
976 1 17 8 1 4489. 5980. 3661. <
977 1 17 8 -1 4477. 3356. 3234. <
978 1 18 8 1 7126. 10434. 4086. o
979 1 18 8 -1 7015. 10312. 3476. o
980 1 19 8 1 1065. 3173. 3661. <
981 1 19 8 -1 1103. 2746. 3173. <
982 2 14 9 -1 6945. 7017. 6407. <
982 1 20 8 1 6945. 7017. 6407. <
983 2 14 9 1 6892. 9885. 8603. <
983 1 20 8 -1 6892. 9885. 8603. <
984 1 21 8 1 6572. 11899. 3596. o
985 1 21 8 -1 6775. 8848. 4148. o
986 1 22 8 1 5013. 7994. 3232. o
987 1 22 8 -1 5235. 7139. 3721. <
988 1 23 8 1 28771. 23188. 3306. o
989 1 23 8 -1 28597. 25751. 3728. o
990 2 36 0 -1 10107. 8360. 3418. o
990 1 -18 9 1 10107. 8360. 3418. o
991 2 36 0 1 10072. 8848. 3357. o
991 1 -18 9 -1 10072. 8848. 3357. o
992 2 34 1 -1 3130. 5187. 3416. <
992 1 -14 9 1 3130. 5187. 3416. <
993 2 34 1 1 3150. 8238. 3781. o
993 1 -14 9 -1 3150. 8238. 3781. o
994 2 32 2 -1 5409. 7384. 4149. <
994 1 -10 9 1 5409. 7384. 4149. <
995 2 32 2 1 5466. 7872. 4026. <
995 1 -10 9 -1 5466. 7872. 4026. <
996 2 30 3 -1 12257. 8909. 6348. <
996 1 -6 9 1 12257. 8909. 6348. <
997 2 30 3 1 12315. 11106. 5371. o
997 1 -6 9 -1 12315. 11106. 5371. o
998 1 4 9 -1 18840. 15743. 7568. o
999 1 5 9 1 4293. 6102. 9031. <
1000 1 5 9 -1 4379. 3295. 6041. <
1001 1 7 9 1 5313. 8909. 5429. <
1002 1 7 9 -1 5292. 8299. 4758. <
1003 1 8 9 1 4545. 4638. 4821. <
1004 1 8 9 -1 4328. 4943. 4454. <
1005 1 9 9 1 2263. 4516. 4027. <
1006 1 9 9 -1 2124. 3783. 4027. <
1007 1 11 9 1 5103. 6346. 3905. <
1008 1 11 9 -1 5218. 5309. 3844. <
1009 1 12 9 1 20767. 22395. 3903. o
1010 1 12 9 -1 20951. 21174. 3539. o
1011 1 13 9 1 5584. 7200. 3355. o
1012 1 13 9 -1 5640. 6895. 3600. <
1013 1 15 9 1 2380. 4638. 3722. <
1014 1 15 9 -1 2384. 5736. 3660. <
1015 1 16 9 1 15230. 14950. 3540. o
1016 1 16 9 -1 15204. 16964. 3842. o
1017 1 17 9 1 16092. 16903. 3355. o
1018 1 17 9 -1 16217. 13608. 3542. o
1019 1 19 9 1 357. 4332. 3477. <
1020 1 19 9 -1 395. 6834. 3659. <
1021 2 34 3 -1 5216. 6468. 7261. <
1021 1 -8 10 1 5216. 6468. 7261. <
1022 2 34 3 1 5359. 5431. 5858. <
1022 1 -8 10 -1 5359. 5431. 5858. <
1023 1 6 10 -1 12547. 10618. 8544. <
1024 1 7 10 -1 604. 4149. 6590. <
1025 1 9 10 1 3550. 7322. 6223. <
1026 1 9 10 -1 3588. 5187. 5186. <
1027 1 10 10 1 27639. 27398. 5675. o
1028 1 10 10 -1 28018. 20442. 4891. o
1029 1 11 10 1 18662. 10618. 5009. o
1030 1 11 10 -1 18414. 15133. 4397. o
1031 2 0 0 -2 30722. 23432. 15197. <
1031 1 0 0 2 30722. 23432. 15197. <
1032 2 0 0 2 30674. 25446. 15746. <
1032 1 0 0 -2 30674. 25446. 15746. <
1033 1 2 0 2 7714. 12936. 7992. <
1034 1 2 0 -2 7788. 9702. 8237. <
1035 2 -2 1 -2 809188. 769836. 10290. o
1035 1 4 0 2 809188. 769836. 10290. o
1036 2 -2 1 2 807535. 799675. 9754. o
1036 1 4 0 -2 807535. 799675. 9754. o
1037 1 6 0 2 2400. 2990. 7750. <
1038 1 6 0 -2 2212. 915. 4211. <
1039 2 -4 2 -2 1203730. 1121070. 12529. o
1039 1 8 0 2 1203730. 1121070. 12529. o
1040 2 -4 2 2 1204710. 1147250. 8808. o
1040 1 8 0 -2 1204710. 1147250. 8808. o
1041 1 10 0 2 7860. 5431. 6164. <
1042 1 10 0 -2 7889. 6834. 4211. <
1043 2 -6 3 -2 42898. 37955. 5501. o
1043 1 12 0 2 42898. 37955. 5501. o
1044 2 -6 3 2 42815. 40945. 3850. o
1044 1 12 0 -2 42815. 40945. 3850. o
1045 1 14 0 2 5664. 3783. 4699. <
1046 1 14 0 -2 6106. 7078. 3173. o
1047 2 -8 4 -2 465304. 420615. 6793. o
1047 1 16 0 2 465304. 420615. 6793. o
1048 2 -8 4 2 465247. 449417. 4811. o
1048 1 16 0 -2 465247. 449417. 4811. o
1049 1 18 0 2 14357. 10618. 4091. o
1050 1 18 0 -2 14621. 15011. 2623. o
1051 2 -10 5 -2 82654. 74018. 4071. o
1051 1 20 0 2 82654. 74018. 4071. o
1052 2 -10 5 2 82414. 76764. 2909. o
1052 1 20 0 -2 82414. 76764. 2909. o
1053 1 22 0 2 22871. 23493. 3416. o
1054 1 22 0 -2 22571. 23310. 2622. o
1055 2 -12 6 -2 11143. 9031. 3602. o
1055 1 24 0 2 11143. 9031. 3602. o
1056 2 -12 6 2 10995. 9885. 2076. o
1056 1 24 0 -2 10995. 9885. 2076. o
1057 1 26 0 2 13754. 12875. 3723. o
1058 1 26 0 -2 13354. 16232. 2130. o
1059 2 -14 7 -2 9324. 6834. 3663. <
1059 1 28 0 2 9324. 6834. 3663. <
1060 2 -14 7 2 9539. 18550. 2241. o
1060 1 28 0 -2 9539. 18550. 2241. o
1061 1 30 0 2 14093. 15438. 3721. o
1062 1 30 0 -2 14091. 10252. 2141. o
1063 2 -16 8 -2 15906. 15743. 3722. o
1063 1 32 0 2 15906. 15743. 3722. o
1064 2 -16 8 2 15287. 15926. 2134. o
1064 1 32 0 -2 15287. 15926. 2134. o
1065 1 34 0 2 4037. 1526. 4028. <
1066 1 34 0 -2 4067. 4516. 2196. o
1067 2 -18 9 -2 11238. 18672. 4203. o
1067 1 36 0 2 11238. 18672. 4203. o
1068 2 -18 9 2 11359. 7872. 2810. o
1068 1 36 0 -2 11359. 7872. 2810. o
1069 2 20 -8 -2 46181. 46132. 3966. o
1069 1 -34 1 2 46181. 46132. 3966. o
1070 2 20 -8 2 45937. 44484. 2691. o
1070 1 -34 1 -2 45937. 44484. 2691. o
1071 2 18 -7 -2 13902. 10068. 3603. o
1071 1 -30 1 2 13902. 10068. 3603. o
1072 2 18 -7 2 13888. 18184. 2004. o
1072 1 -30 1 -2 13888. 18184. 2004. o
1073 2 16 -6 -2 137699. 130889. 4267. o
1073 1 -26 1 2 137699. 130889. 4267. o
1074 2 16 -6 2 137734. 135954. 2407. o
1074 1 -26 1 -2 137734. 135954. 2407. o
1075 2 14 -5 -2 484798. 449661. 5751. o
1075 1 -22 1 2 484798. 449661. 5751. o
1076 2 14 -5 2 484569. 464550. 3738. o
1076 1 -22 1 -2 484569. 464550. 3738. o
1077 2 12 -4 -2 24319. 16598. 3794. o
1077 1 -18 1 2 24319. 16598. 3794. o
1078 2 12 -4 2 24077. 23127. 2748. o
1078 1 -18 1 -2 24077. 23127. 2748. o
1079 2 10 -3 -2 746426. 701188. 8367. o
1079 1 -14 1 2 746426. 701188. 8367. o
1080 2 10 -3 2 746780. 721020. 6077. o
1080 1 -14 1 -2 746780. 721020. 6077. o
1081 2 8 -2 -2 652966. 624363. 8977. o
1081 1 -10 1 2 652966. 624363. 8977. o
1082 2 8 -2 2 656440. 632723. 5546. o
1082 1 -10 1 -2 656440. 632723. 5546. o
1083 2 6 -1 -2 1978. 4210. 6834. <
1083 1 -6 1 2 1978. 4210. 6834. <
1084 2 6 -1 2 1998. 2136. 4210. <
1084 1 -6 1 -2 1998. 2136. 4210. <
1085 2 4 0 -2 743918. 742987. 10940. o
1085 1 -2 1 2 743918. 742987. 10940. o
1086 2 4 0 2 744679. 767578. 9852. o
1086 1 -2 1 -2 744679. 767578. 9852. o
1087 1 0 1 2 3653. 3600. 10129. <
1088 1 0 1 -2 3643. 3966. 9885. <
1089 1 1 1 2 14338. 15011. 6529. o
1090 1 1 1 -2 14611. 15804. 6651. o
1091 2 2 1 -2 726721. 781369. 13283. o
1091 1 2 1 2 726721. 781369. 13283. o
1092 2 2 1 2 727056. 786495. 12290. o
1092 1 2 1 -2 727056. 786495. 12290. o
1093 1 3 1 2 12452. 12021. 4699. o
1094 1 3 1 -2 12183. 10129. 4700. o
1095 1 4 1 2 245. 1281. 4332. <
1096 1 4 1 -2 247. 1587. 4332. <
1097 1 5 1 2 12072. 12265. 4454. o
1098 1 5 1 -2 12332. 12692. 3417. o
1099 2 0 2 -2 3151. 3905. 7322. <
1099 1 6 1 2 3151. 3905. 7322. <
1100 2 0 2 2 3204. 2319. 4333. <
1100 1 6 1 -2 3204. 2319. 4333. <
1101 1 7 1 2 1657. 2441. 4576. <
1102 1 7 1 -2 1753. 1526. 2563. <
1103 1 8 1 2 19807. 16903. 4397. o
1104 1 8 1 -2 19503. 15194. 2509. o
1105 1 9 1 2 198500. 187944. 4752. o
1106 1 9 1 -2 198298. 182818. 3071. o
1107 2 -2 3 -2 655704. 593242. 9612. o
1107 1 10 1 2 655704. 593242. 9612. o
1108 2 -2 3 2 659329. 633150. 6633. o
1108 1 10 1 -2 659329. 633150. 6633. o
1109 1 11 1 2 13137. 11655. 4090. o
1110 1 11 1 -2 13137. 13058. 2624. o
1111 1 12 1 2 2461. 4638. 3783. <
1112 1 12 1 -2 2224. 3417. 2318. <
1113 1 13 1 2 7254. 6041. 2930. o
1114 1 13 1 -2 7164. 7872. 2257. o
1115 2 -4 4 -2 717412. 665918. 6946. o
1115 1 14 1 2 717412. 665918. 6946. o
1116 2 -4 4 2 717177. 712599. 5708. o
1116 1 14 1 -2 717177. 712599. 5708. o
1117 1 15 1 2 9575. 11106. 2622. o
1118 1 15 1 -2 9528. 11777. 2255. o
1119 1 16 1 2 11133. 13242. 2499. o
1120 1 16 1 -2 11292. 12265. 2134. o
1121 1 17 1 2 49300. 46681. 3062. o
1122 1 17 1 -2 49524. 48633. 2141. o
1123 2 -6 5 -2 22537. 27642. 4019. o
1123 1 18 1 2 22537. 27642. 4019. o
1124 2 -6 5 2 22175. 20259. 2933. o
1124 1 18 1 -2 22175. 20259. 2933. o
1125 1 19 1 2 23846. 21052. 2752. o
1126 1 19 1 -2 23815. 22944. 1955. o
1127 1 20 1 2 1017. 2685. 2501. <
1128 1 20 1 -2 1220. 1464. 1586. <
1129 1 21 1 2 76656. 69503. 2736. o
1130 1 21 1 -2 76246. 67733. 1742. o
1131 2 -8 6 -2 451138. 443925. 5765. o
1131 1 22 1 2 451138. 443925. 5765. o
1132 2 -8 6 2 451049. 459058. 3843. o
1132 1 22 1 -2 451049. 459058. 3843. o
1133 1 23 1 2 113270. 110020. 2901. o
1134 1 23 1 -2 113588. 110508. 1880. o
1135 1 24 1 2 9509. 11228. 2561. o
1136 1 24 1 -2 9669. 10557. 1707. o
1137 1 25 1 2 78673. 74567. 2897. o
1138 1 25 1 -2 78680. 80486. 1686. o
1139 2 -10 7 -2 136668. 127777. 4584. o
1139 1 26 1 2 136668. 127777. 4584. o
1140 2 -10 7 2 136804. 139981. 2703. o
1140 1 26 1 -2 136804. 139981. 2703. o
1141 1 27 1 2 3433. 5370. 2684. <
1142 1 27 1 -2 3383. 7384. 1582. o
1143 1 28 1 2 2217. 3722. 2379. <
1144 1 28 1 -2 2167. 3966. 1524. o
1145 1 29 1 2 26546. 22517. 2755. o
1146 1 29 1 -2 26688. 26849. 1525. o
1147 2 -12 8 -2 14810. 16720. 3964. o
1147 1 30 1 2 14810. 16720. 3964. o
1148 2 -12 8 2 14793. 14950. 2319. o
1148 1 30 1 -2 14793. 14950. 2319. o
1149 1 31 1 2 22342. 19710. 2751. o
1150 1 31 1 -2 22238. 23676. 1581. o
1151 1 32 1 2 1416. 12265. 2553. o
1152 1 32 1 -2 1436. 915. 1587. <
1153 1 33 1 2 26611. 24103. 2752. o
1154 1 33 1 -2 26716. 27154. 1585. o
1155 2 -14 9 -2 48705. 41860. 4412. o
1155 1 34 1 2 48705. 41860. 4412. o
1156 2 -14 9 2 48429. 49183. 2620. o
1156 1 34 1 -2 48429. 49183. 2620. o
1157 1 35 1 2 19140. 19649. 2928. o
1158 1 35 1 -2 18988. 20503. 1826. o
1159 1 36 1 2 728. 4393. 2928. <
1160 1 36 1 -2 743. 7322. 2070. o
1161 2 24 -8 -2 2707. 6041. 2500. o
1161 1 -36 2 2 2707. 6041. 2500. o
1162 2 24 -8 2 2743. 7078. 2682. o
1162 1 -36 2 -2 2743. 7078. 2682. o
1163 2 22 -7 -2 4692. 5614. 3539. <
1163 1 -32 2 2 4692. 5614. 3539. <
1164 2 22 -7 2 4527. 7017. 2500. o
1164 1 -32 2 -2 4527. 7017. 2500. o
1165 2 20 -6 -2 63839. 61570. 3672. o
1165 1 -28 2 2 63839. 61570. 3672. o
1166 2 20 -6 2 65284. 61814. 2103. o
1166 1 -28 2 -2 65284. 61814. 2103. o
1167 2 18 -5 -2 14340. 11289. 3542. o
1167 1 -24 2 2 14340. 11289. 3542. o
1168 2 18 -5 2 14606. 11167. 2019. o
1168 1 -24 2 -2 14606. 11167. 2019. o
1169 2 16 -4 -2 97838. 88419. 3844. o
1169 1 -20 2 2 97838. 88419. 3844. o
1170 2 16 -4 2 95187. 95985. 2187. o
1170 1 -20 2 -2 95187. 95985. 2187. o
1171 2 14 -3 -2 149127. 149928. 4692. o
1171 1 -16 2 2 149127. 149928. 4692. o
1172 2 14 -3 2 151041. 139066. 2850. o
1172 1 -16 2 -2 151041. 139066. 2850. o
1173 2 12 -2 -2 14790. 23066. 5117. o
1173 1 -12 2 2 14790. 23066. 5117. o
1174 2 12 -2 2 14782. 20808. 2857. o
1174 1 -12 2 -2 14782. 20808. 2857. o
1175 2 10 -1 -2 652268. 606240. 9283. o
1175 1 -8 2 2 652268. 606240. 9283. o
1176 2 10 -1 2 650175. 609230. 6021. o
1176 1 -8 2 -2 650175. 609230. 6021. o
1177 2 8 0 -2 1015520. 961441. 10374. o
1177 1 -4 2 2 1015520. 961441. 10374. o
1178 2 8 0 2 1016110. 1009400. 9170. o
1178 1 -4 2 -2 1016110. 1009400. 9170. o
1179 2 6 1 -2 7585. 8665. 8176. <
1179 1 0 2 2 7585. 8665. 8176. <
1180 2 6 1 2 7452. 8665. 7749. <
1180 1 0 2 -2 7452. 8665. 7749. <
1181 1 1 2 2 12947. 10862. 6530. <
1182 1 1 2 -2 12856. 11045. 6286. <
1183 1 2 2 2 6536. 5858. 5614. <
1184 1 2 2 -2 6705. 5797. 6774. <
1185 1 3 2 2 283417. 258422. 7090. o
1186 1 3 2 -2 285600. 275203. 6467. o
1187 2 4 2 -2 964982. 1020940. 17278. o
1187 1 4 2 2 964982. 1020940. 17278. o
1188 2 4 2 2 965643. 969069. 9980. o
1188 1 4 2 -2 965643. 969069. 9980. o
1189 1 5 2 2 27717. 23981. 4399. o
1190 1 5 2 -2 27739. 23920. 3364. o
1191 1 6 2 2 2410. 3295. 5187. <
1192 1 6 2 -2 2478. 2380. 2929. <
1193 1 7 2 2 85843. 76093. 4561. o
1194 1 7 2 -2 85008. 77557. 2923. o
1195 2 2 3 -2 653769. 593182. 10509. o
1195 1 8 2 2 653769. 593182. 10509. o
1196 2 2 3 2 652808. 613318. 6738. o
1196 1 8 2 -2 652808. 613318. 6738. o
1197 1 9 2 2 85399. 83659. 4585. o
1198 1 9 2 -2 85391. 83781. 2881. o
1199 1 10 2 2 24375. 25202. 4087. o
1200 1 10 2 -2 24288. 20564. 2389. o
1201 1 11 2 2 27713. 21845. 3854. o
1202 1 11 2 -2 26571. 27215. 2500. o
1203 2 0 4 -2 34397. 33805. 5127. o
1203 1 12 2 2 34397. 33805. 5127. o
1204 2 0 4 2 34545. 35880. 3658. o
1204 1 12 2 -2 34545. 35880. 3658. o
1205 1 13 2 2 8977. 8970. 3478. o
1206 1 13 2 -2 8933. 8055. 2076. o
1207 1 14 2 2 2898. 5553. 3355. <
1208 1 14 2 -2 2908. 2441. 2014. <
1209 1 15 2 2 18211. 13119. 3301. o
1210 1 15 2 -2 17945. 15499. 1958. o
1211 2 -2 5 -2 127015. 122835. 5335. o
1211 1 16 2 2 127015. 122835. 5335. o
1212 2 -2 5 2 128926. 130035. 3590. o
1212 1 16 2 -2 128926. 130035. 3590. o
1213 1 17 2 2 3472. 4088. 3234. <
1214 1 17 2 -2 3518. 5797. 1768. o
1215 1 18 2 2 11306. 7750. 2871. o
1216 1 18 2 -2 11196. 10007. 1771. o
1217 1 19 2 2 16462. 21540. 2920. o
1218 1 19 2 -2 15914. 16354. 1830. o
1219 2 -4 6 -2 95738. 85307. 4811. o
1219 1 20 2 2 95738. 85307. 4811. o
1220 2 -4 6 2 93551. 100440. 3240. o
1220 1 20 2 -2 93551. 100440. 3240. o
1221 1 21 2 2 34330. 35026. 2744. o
1222 1 21 2 -2 34345. 31182. 1724. o
1223 1 22 2 2 4194. 1831. 2686. <
1224 1 22 2 -2 4344. 2380. 1649. <
1225 1 23 2 2 9352. 7933. 2808. o
1226 1 23 2 -2 9439. 11960. 1704. o
1227 2 -6 7 -2 15395. 14706. 4333. o
1227 1 24 2 2 15395. 14706. 4333. o
1228 2 -6 7 2 15626. 16292. 3294. o
1228 1 24 2 -2 15626. 16292. 3294. o
1229 1 25 2 2 1095. 6041. 2744. o
1230 1 25 2 -2 1167. 3478. 1524. o
1231 1 26 2 2 2998. 5370. 2684. <
1232 1 26 2 -2 3168. 5370. 1585. o
1233 1 27 2 2 4015. 5858. 2623. o
1234 1 27 2 -2 3979. 5004. 1525. o
1235 2 -8 8 -2 61768. 60655. 5007. o
1235 1 28 2 2 61768. 60655. 5007. o
1236 2 -8 8 2 63102. 62180. 2630. o
1236 1 28 2 -2 63102. 62180. 2630. o
1237 1 29 2 2 6061. 4210. 2747. <
1238 1 29 2 -2 5990. 6468. 1525. o
1239 1 30 2 2 6733. 7200. 2746. o
1240 1 30 2 -2 6622. 6590. 1587. o
1241 1 31 2 2 2889. -305. 2685. <
1242 1 31 2 -2 2977. 2868. 1648. <
1243 2 -10 9 -2 4539. -427. 4333. <
1243 1 32 2 2 4539. -427. 4333. <
1244 2 -10 9 2 4333. 6956. 2439. o
1244 1 32 2 -2 4333. 6956. 2439. o
1245 1 33 2 2 3273. 4332. 2684. <
1246 1 33 2 -2 3298. 10129. 1823. o
1247 1 34 2 2 8189. 7628. 2807. o
1248 1 34 2 -2 8153. 8787. 1769. o
1249 1 35 2 2 723. 3173. 2745. <
1250 1 35 2 -2 738. 4638. 1707. o
1251 2 -12 10 -2 3076. 13730. 4326. o
1251 1 36 2 2 3076. 13730. 4326. o
1252 2 -12 10 2 3117. 8543. 2987. o
1252 1 36 2 -2 3117. 8543. 2987. o
1253 2 26 -7 -2 128453. 102271. 3465. o
1253 1 -34 3 2 128453. 102271. 3465. o
1254 2 26 -7 2 127876. 100745. 3358. o
1254 1 -34 3 -2 127876. 100745. 3358. o
1255 2 24 -6 -2 7794. 8543. 3112. o
1255 1 -30 3 2 7794. 8543. 3112. o
1256 2 24 -6 2 7718. 6285. 2564. o
1256 1 -30 3 -2 7718. 6285. 2564. o
1257 2 22 -5 -2 202726. 204358. 4496. o
1257 1 -26 3 2 202726. 204358. 4496. o
1258 2 22 -5 2 204278. 195083. 2803. o
1258 1 -26 3 -2 204278. 195083. 2803. o
1259 2 20 -4 -2 53285. 55956. 3834. o
1259 1 -22 3 2 53285. 55956. 3834. o
1260 2 20 -4 2 53463. 56993. 2173. o
1260 1 -22 3 -2 53463. 56993. 2173. o
1261 2 18 -3 -2 23994. 25812. 3536. o
1261 1 -18 3 2 23994. 25812. 3536. o
1262 2 18 -3 2 24183. 24652. 2012. o
1262 1 -18 3 -2 24183. 24652. 2012. o
1263 2 16 -2 -2 170863. 162010. 5021. o
1263 1 -14 3 2 170863. 162010. 5021. o
1264 2 16 -2 2 170152. 158959. 2975. o
1264 1 -14 3 -2 170152. 158959. 2975. o
1265 2 14 -1 -2 579524. 546257. 8081. o
1265 1 -10 3 2 579524. 546257. 8081. o
1266 2 14 -1 2 577649. 553640. 5095. o
1266 1 -10 3 -2 577649. 553640. 5095. o
1267 2 12 0 -2 16470. 13913. 5982. o
1267 1 -6 3 2 16470. 13913. 5982. o
1268 2 12 0 2 16488. 13486. 3177. o
1268 1 -6 3 -2 16488. 13486. 3177. o
1269 2 10 1 -2 664307. 631991. 9225. o
1269 1 -2 3 2 664307. 631991. 9225. o
1270 2 10 1 2 661531. 670251. 8297. o
1270 1 -2 3 -2 661531. 670251. 8297. o
1271 1 0 3 2 56210. 56017. 9031. o
1272 1 0 3 -2 55885. 51074. 9526. o
1273 1 1 3 2 71323. 71455. 5125. o
1274 1 1 3 -2 71194. 65048. 5633. o
1275 2 8 2 -2 663071. 621190. 14119. o
1275 1 2 3 2 663071. 621190. 14119. o
1276 2 8 2 2 661271. 738166. 15757. o
1276 1 2 3 -2 661271. 738166. 15757. o
1277 1 3 3 2 147568. 139127. 5489. o
1278 1 3 3 -2 146949. 154382. 5622. o
1279 1 4 3 2 69640. 69319. 4883. o
1280 1 4 3 -2 69838. 80303. 4714. o
1281 1 5 3 2 1655. 5431. 5918. <
1282 1 5 3 -2 1637. 4088. 3783. <
1283 2 6 3 -2 9327. 12570. 9396. <
1283 1 6 3 2 9327. 12570. 9396. <
1284 2 6 3 2 9327. 8177. 4760. <
1284 1 6 3 -2 9327. 8177. 4760. <
1285 1 7 3 2 20325. 22090. 4635. o
1286 1 7 3 -2 20788. 20320. 2747. o
1287 1 8 3 2 5397. 6651. 4576. <
1288 1 8 3 -2 5498. 6285. 2562. o
1289 1 9 3 2 37134. 37100. 4210. o
1290 1 9 3 -2 36122. 36918. 2438. o
1291 2 4 4 -2 505024. 486029. 9244. o
1291 1 10 3 2 505024. 486029. 9244. o
1292 2 4 4 2 502954. 499149. 5044. o
1292 1 10 3 -2 502954. 499149. 5044. o
1293 1 11 3 2 111246. 104345. 4378. o
1294 1 11 3 -2 111315. 110813. 2447. o
1295 1 12 3 2 40220. 39541. 3541. o
1296 1 12 3 -2 39999. 43630. 2240. o
1297 1 13 3 2 72855. 64865. 3519. o
1298 1 13 3 -2 71194. 68709. 2218. o
1299 2 2 5 -2 154192. 147853. 5477. o
1299 1 14 3 2 154192. 147853. 5477. o
1300 2 2 5 2 153942. 159264. 4033. o
1300 1 14 3 -2 153942. 159264. 4033. o
1301 1 15 3 2 27038. 26788. 3418. o
1302 1 15 3 -2 27293. 27276. 1892. o
1303 1 16 3 2 1568. 2563. 3295. <
1304 1 16 3 -2 1491. 2807. 2013. <
1305 1 17 3 2 6788. 6102. 2929. o
1306 1 17 3 -2 7005. 7689. 1708. o
1307 2 0 6 -2 46303. 37345. 4658. o
1307 1 18 3 2 46303. 37345. 4658. o
1308 2 0 6 2 46506. 41311. 3738. o
1308 1 18 3 -2 46506. 41311. 3738. o
1309 1 19 3 2 12103. 8909. 2871. o
1310 1 19 3 -2 12045. 9885. 1712. o
1311 1 20 3 2 30316. 29290. 2932. o
1312 1 20 3 -2 29861. 27764. 1839. o
1313 1 21 3 2 133684. 126374. 3132. o
1314 1 21 3 -2 134949. 126130. 2159. o
1315 2 -2 7 -2 54677. 52600. 4339. o
1315 1 22 3 2 54677. 52600. 4339. o
1316 2 -2 7 2 54785. 48694. 2595. o
1316 1 22 3 -2 54785. 48694. 2595. o
1317 1 23 3 2 41709. 39602. 2754. o
1318 1 23 3 -2 41392. 38870. 1603. o
1319 1 24 3 2 2274. 122. 2807. <
1320 1 24 3 -2 2319. 2197. 1587. <
1321 1 25 3 2 905. 2868. 2807. <
1322 1 25 3 -2 920. 2746. 1586. <
1323 2 -4 8 -2 179233. 198805. 5180. o
1323 1 26 3 2 179233. 198805. 5180. o
1324 2 -4 8 2 180535. 187211. 2941. o
1324 1 26 3 -2 180535. 187211. 2941. o
1325 1 27 3 2 36387. 35270. 2872. o
1326 1 27 3 -2 36422. 36002. 1650. o
1327 1 28 3 2 21845. 20991. 2809. o
1328 1 28 3 -2 22027. 18794. 1658. o
1329 1 29 3 2 18244. 12326. 2754. o
1330 1 29 3 -2 17972. 22517. 1694. o
1331 2 -6 9 -2 8221. 4516. 4334. <
1331 1 30 3 2 8221. 4516. 4334. <
1332 2 -6 9 2 8122. 10496. 2377. o
1332 1 30 3 -2 8122. 10496. 2377. o
1333 1 31 3 2 6042. 11716. 2924. o
1334 1 31 3 -2 6111. 7872. 1829. o
1335 1 32 3 2 2550. 5553. 2806. <
1336 1 32 3 -2 2575. 3356. 1830. <
1337 1 33 3 2 6946. 13913. 2922. o
1338 1 33 3 -2 6771. 8177. 1829. o
1339 2 -8 10 -2 123700. 109593. 5389. o
1339 1 34 3 2 123700. 109593. 5389. o
1340 2 -8 10 2 123199. 120638. 3078. o
1340 1 34 3 -2 123199. 120638. 3078. o
1341 1 35 3 2 26645. 21174. 2455. o
1342 1 35 3 -2 27022. 22639. 2210. o
1343 2 28 -6 -2 19008. 16476. 2872. o
1343 1 -32 4 2 19008. 16476. 2872. o
1344 2 28 -6 2 18420. 17086. 2809. o
1344 1 -32 4 -2 18420. 17086. 2809. o
1345 2 26 -5 -2 6857. 3478. 3906. <
1345 1 -28 4 2 6857. 3478. 3906. <
1346 2 26 -5 2 6970. 11106. 2314. o
1346 1 -28 4 -2 6970. 11106. 2314. o
1347 2 24 -4 -2 3382. 4210. 4271. <
1347 1 -24 4 2 3382. 4210. 4271. <
1348 2 24 -4 2 3413. 610. 2746. <
1348 1 -24 4 -2 3413. 610. 2746. <
1349 2 22 -3 -2 58519. 57970. 4029. o
1349 1 -20 4 2 58519. 57970. 4029. o
1350 2 22 -3 2 58208. 60716. 2547. o
1350 1 -20 4 -2 58208. 60716. 2547. o
1351 2 20 -2 -2 55606. 58031. 4385. o
1351 1 -16 4 2 55606. 58031. 4385. o
1352 2 20 -2 2 57307. 58336. 2495. o
1352 1 -16 4 -2 57307. 58336. 2495. o
1353 2 18 -1 -2 45976. 50159. 4809. o
1353 1 -12 4 2 45976. 50159. 4809. o
1354 2 18 -1 2 45698. 51074. 2843. o
1354 1 -12 4 -2 45698. 51074. 2843. o
1355 2 16 0 -2 299339. 289909. 6461. o
1355 1 -8 4 2 299339. 289909. 6461. o
1356 2 16 0 2 297755. 299794. 3678. o
1356 1 -8 4 -2 297755. 299794. 3678. o
1357 2 14 1 -2 440841. 416832. 9150. o
1357 1 -4 4 2 440841. 416832. 9150. o
1358 2 14 1 2 441719. 464001. 8725. o
1358 1 -4 4 -2 441719. 464001. 8725. o
1359 2 12 2 -2 106372. 110569. 6816. o
1359 1 0 4 2 106372. 110569. 6816. o
1360 2 12 2 2 105646. 110203. 9689. o
1360 1 0 4 -2 105646. 110203. 9689. o
1361 1 1 4 2 17509. 15011. 3847. o
1362 1 1 4 -2 17152. 14645. 6653. o
1363 1 2 4 2 106835. 92507. 3999. o
1364 1 2 4 -2 106505. 105200. 7084. o
1365 1 3 4 2 185304. 190689. 4084. o
1366 1 3 4 -2 185032. 208507. 6711. o
1367 2 10 3 -2 395398. 416039. 12204. o
1367 1 4 4 2 395398. 416039. 12204. o
1368 2 10 3 2 396672. 430623. 12077. o
1368 1 4 4 -2 396672. 430623. 12077. o
1369 1 5 4 2 72071. 71516. 6043. o
1370 1 5 4 -2 72298. 77557. 3878. o
1371 1 6 4 2 3934. 6163. 5247. <
1372 1 6 4 -2 4098. 2624. 2685. <
1373 1 7 4 2 42078. 45826. 5728. o
1374 1 7 4 -2 41958. 40030. 3058. o
1375 2 8 4 -2 254176. 253114. 10076. o
1375 1 8 4 2 254176. 253114. 10076. o
1376 2 8 4 2 252867. 255127. 5525. o
1376 1 8 4 -2 252867. 255127. 5525. o
1377 1 9 4 2 287084. 291190. 5742. o
1378 1 9 4 -2 287034. 278498. 3254. o
1379 1 10 4 2 24573. 20869. 4398. o
1380 1 10 4 -2 24375. 20320. 2207. o
1381 1 11 4 2 3685. 6529. 3782. <
1382 1 11 4 -2 3413. 3234. 2197. <
1383 2 6 5 -2 50140. 47291. 5925. o
1383 1 12 4 2 50140. 47291. 5925. o
1384 2 6 5 2 49749. 47596. 3060. o
1384 1 12 4 -2 49749. 47596. 3060. o
1385 1 13 4 2 2015. 4577. 3783. <
1386 1 13 4 -2 1957. 4760. 1951. o
1387 1 14 4 2 9356. 8543. 3723. o
1388 1 14 4 -2 9633. 9214. 1892. o
1389 1 15 4 2 58880. 59373. 3598. o
1390 1 15 4 -2 58298. 57970. 2016. o
1391 2 4 6 -2 43006. 36124. 4410. o
1391 1 16 4 2 43006. 36124. 4410. o
1392 2 4 6 2 44402. 36063. 2536. o
1392 1 16 4 -2 44402. 36063. 2536. o
1393 1 17 4 2 22196. 23188. 3232. o
1394 1 17 4 -2 22605. 22700. 1708. o
1395 1 18 4 2 1715. 5919. 3171. <
1396 1 18 4 -2 1661. 1709. 1587. <
1397 1 19 4 2 21992. 22822. 3172. o
1398 1 19 4 -2 22446. 21235. 1652. o
1399 2 2 7 -2 61254. 51501. 4729. o
1399 1 20 4 2 61254. 51501. 4729. o
1400 2 2 7 2 60958. 54064. 2783. o
1400 1 20 4 -2 60958. 54064. 2783. o
1401 1 21 4 2 66813. 66146. 3421. o
1402 1 21 4 -2 67191. 65475. 1908. o
1403 1 22 4 2 27388. 24835. 3057. o
1404 1 22 4 -2 27267. 27215. 1709. o
1405 1 23 4 2 9280. 11106. 3233. o
1406 1 23 4 -2 9424. 9641. 1586. o
1407 2 0 8 -2 11452. 10740. 4760. o
1407 1 24 4 2 11452. 10740. 4760. o
1408 2 0 8 2 11592. 9336. 2382. o
1408 1 24 4 -2 11592. 9336. 2382. o
1409 1 25 4 2 7720. 7994. 3051. o
1410 1 25 4 -2 7652. 7811. 1769. o
1411 1 26 4 2 3219. 122. 2807. <
1412 1 26 4 -2 3256. 3051. 1892. <
1413 1 27 4 2 19975. 19527. 2869. o
1414 1 27 4 -2 19648. 19954. 1830. o
1415 2 -2 9 -2 5908. 8543. 4453. <
1415 1 28 4 2 5908. 8543. 4453. <
1416 2 -2 9 2 6058. 8116. 2561. o
1416 1 28 4 -2 6058. 8116. 2561. o
1417 1 29 4 2 14697. 14035. 2930. o
1418 1 29 4 -2 14732. 18245. 1883. o
1419 1 30 4 2 3701. 6163. 2378. o
1420 1 30 4 -2 3758. 4271. 1830. o
1421 1 31 4 2 8232. 13119. 2374. o
1422 1 31 4 -2 8093. 10374. 1827. o
1423 2 -4 10 -2 16100. 17818. 4514. o
1423 1 32 4 2 16100. 17818. 4514. o
1424 2 -4 10 2 15556. 16720. 2622. o
1424 1 32 4 -2 15556. 16720. 2622. o
1425 1 33 4 2 841. 7811. 2253. o
1426 1 33 4 -2 839. 3356. 1769. <
1427 1 34 4 2 477. 5187. 2317. o
1428 1 34 4 -2 460. 4271. 1951. o
1429 2 30 -5 -2 3092. 6102. 2989. o
1429 1 -30 5 2 3092. 6102. 2989. o
1430 2 30 -5 2 3094. 6895. 2988. o
1430 1 -30 5 -2 3094. 6895. 2988. o
1431 2 28 -4 -2 8022. 10129. 2866. o
1431 1 -26 5 2 8022. 10129. 2866. o
1432 2 28 -4 2 8167. 10190. 2866. o
1432 1 -26 5 -2 8167. 10190. 2866. o
1433 2 26 -3 -2 157182. 161949. 3419. o
1433 1 -22 5 2 157182. 161949. 3419. o
1434 2 26 -3 2 155830. 162864. 3328. o
1434 1 -22 5 -2 155830. 162864. 3328. o
1435 2 24 -2 -2 5241. 5248. 4027. <
1435 1 -18 5 2 5241. 5248. 4027. <
1436 2 24 -2 2 5136. 3722. 2930. <
1436 1 -18 5 -2 5136. 3722. 2930. <
1437 2 22 -1 -2 315289. 313585. 5761. o
1437 1 -14 5 2 315289. 313585. 5761. o
1438 2 22 -1 2 315899. 325667. 4198. o
1438 1 -14 5 -2 315899. 325667. 4198. o
1439 2 20 0 -2 87654. 87198. 3725. o
1439 1 -10 5 2 87654. 87198. 3725. o
1440 2 20 0 2 87515. 93850. 3433. o
1440 1 -10 5 -2 87515. 93850. 3433. o
1441 2 18 1 -2 37073. 39724. 3593. o
1441 1 -6 5 2 37073. 39724. 3593. o
1442 2 18 1 2 37347. 39724. 3777. o
1442 1 -6 5 -2 37347. 39724. 3777. o
1443 2 16 2 -2 67660. 66940. 5189. o
1443 1 -2 5 2 67660. 66940. 5189. o
1444 2 16 2 2 66963. 70967. 6885. o
1444 1 -2 5 -2 66963. 70967. 6885. o
1445 1 0 5 2 20996. 25629. 5914. o
1446 1 0 5 -2 20888. 16842. 8789. <
1447 1 1 5 2 19505. 20991. 4758. o
1448 1 1 5 -2 19156. 20991. 6345. o
1449 2 14 3 -2 73034. 74445. 7441. o
1449 1 2 5 2 73034. 74445. 7441. o
1450 2 14 3 2 72796. 83720. 10473. o
1450 1 2 5 -2 72796. 83720. 10473. o
1451 1 3 5 2 48703. 49183. 3904. o
1452 1 3 5 -2 48749. 48023. 4152. o
1453 1 4 5 2 10347. 13424. 3536. o
1454 1 4 5 -2 10485. 15072. 3596. o
1455 1 5 5 2 12028. 12387. 3478. o
1456 1 5 5 -2 12345. 11899. 3479. o
1457 2 12 4 -2 42992. 45094. 8723. o
1457 1 6 5 2 42992. 45094. 8723. o
1458 2 12 4 2 43273. 41921. 6776. o
1458 1 6 5 -2 43273. 41921. 6776. o
1459 1 7 5 2 15044. 14950. 3905. o
1460 1 7 5 -2 15170. 14340. 3113. o
1461 1 8 5 2 74989. 63339. 4079. o
1462 1 8 5 -2 74483. 74384. 3113. o
1463 1 9 5 2 69220. 65231. 3984. o
1464 1 9 5 -2 69442. 67855. 3913. o
1465 2 10 5 -2 89203. 95985. 8706. o
1465 1 10 5 2 89203. 95985. 8706. o
1466 2 10 5 2 89046. 90310. 4937. o
1466 1 10 5 -2 89046. 90310. 4937. o
1467 1 11 5 2 51365. 51990. 4147. o
1468 1 11 5 -2 50514. 50464. 2685. o
1469 1 12 5 2 32732. 37711. 4138. o
1470 1 12 5 -2 32563. 33439. 2377. o
1471 1 13 5 2 47512. 46498. 3848. o
1472 1 13 5 -2 47698. 46071. 2388. o
1473 2 8 6 -2 236393. 245120. 7307. o
1473 1 14 5 2 236393. 245120. 7307. o
1474 2 8 6 2 236993. 233038. 4088. o
1474 1 14 5 -2 236993. 233038. 4088. o
1475 1 15 5 2 105991. 104345. 3856. o
1476 1 15 5 -2 105138. 102515. 2410. o
1477 1 16 5 2 111489. 113193. 3708. o
1478 1 16 5 -2 111791. 114048. 2351. o
1479 1 17 5 2 5701. 7261. 3355. o
1480 1 17 5 -2 5738. 7628. 2195. o
1481 2 6 7 -2 3734. 7322. 5430. <
1481 1 18 5 2 3734. 7322. 5430. <
1482 2 6 7 2 3660. 2746. 2868. <
1482 1 18 5 -2 3660. 2746. 2868. <
1483 1 19 5 2 1756. 3661. 3234. <
1484 1 19 5 -2 1768. 2014. 2075. <
1485 1 20 5 2 7530. 5675. 3235. <
1486 1 20 5 -2 7538. 9397. 1950. o
1487 1 21 5 2 41400. 40945. 3297. o
1488 1 21 5 -2 41155. 44728. 2055. o
1489 2 4 8 -2 120799. 116244. 5518. o
1489 1 22 5 2 120799. 116244. 5518. o
1490 2 4 8 2 119710. 128570. 3078. o
1490 1 22 5 -2 119710. 128570. 3078. o
1491 1 23 5 2 55471. 60349. 2656. o
1492 1 23 5 -2 55992. 60410. 2041. o
1493 1 24 5 2 82645. 84208. 2733. o
1494 1 24 5 -2 82458. 87198. 2022. o
1495 1 25 5 2 37153. 38321. 2558. o
1496 1 25 5 -2 36881. 37100. 1952. o
1497 2 2 9 -2 7403. 2502. 5493. <
1497 1 26 5 2 7403. 2502. 5493. <
1498 2 2 9 2 7580. 9214. 2622. o
1498 1 26 5 -2 7580. 9214. 2622. o
1499 1 27 5 2 5030. 8421. 2621. o
1500 1 27 5 -2 5209. 6041. 1830. o
1501 1 28 5 2 378. -793. 2441. <
1502 1 28 5 -2 362. 1526. 1952. <
1503 1 29 5 2 4235. 6773. 2378. o
1504 1 29 5 -2 4090. 9702. 1947. o
1505 2 0 10 -2 2681. 3051. 4760. <
1505 1 30 5 2 2681. 3051. 4760. <
1506 2 0 10 2 2690. 5553. 2562. o
1506 1 30 5 -2 2690. 5553. 2562. o
1507 1 31 5 2 1222. 6468. 2499. o
1508 1 31 5 -2 1235. 5736. 2133. o
1509 1 32 5 2 7914. 10740. 2438. o
1510 1 32 5 -2 7929. 11594. 2314. o
1511 2 32 -4 -2 20262. 20381. 2868. o
1511 1 -28 6 2 20262. 20381. 2868. o
1512 2 32 -4 2 20605. 15560. 3059. o
1512 1 -28 6 -2 20605. 15560. 3059. o
1513 2 30 -3 -2 3356. 5431. 2928. <
1513 1 -24 6 2 3356. 5431. 2928. <
1514 2 30 -3 2 3359. 4393. 2990. <
1514 1 -24 6 -2 3359. 4393. 2990. <
1515 2 28 -2 -2 37665. 36856. 3237. o
1515 1 -20 6 2 37665. 36856. 3237. o
1516 2 28 -2 2 36717. 35575. 3359. o
1516 1 -20 6 -2 36717. 35575. 3359. o
1517 2 26 -1 -2 40318. 38016. 3424. o
1517 1 -16 6 2 40318. 38016. 3424. o
1518 2 26 -1 2 40664. 38382. 2815. o
1518 1 -16 6 -2 40664. 38382. 2815. o
1519 2 24 0 -2 44046. 45643. 3412. o
1519 1 -12 6 2 44046. 45643. 3412. o
1520 2 24 0 2 44315. 43630. 3480. o
1520 1 -12 6 -2 44315. 43630. 3480. o
1521 2 22 1 -2 159556. 155175. 4012. o
1521 1 -8 6 2 159556. 155175. 4012. o
1522 2 22 1 2 159517. 167380. 3691. o
1522 1 -8 6 -2 159517. 167380. 3691. o
1523 2 20 2 -2 47818. 46620. 4214. o
1523 1 -4 6 2 47818. 46620. 4214. o
1524 2 20 2 2 47364. 46925. 3724. o
1524 1 -4 6 -2 47364. 46925. 3724. o
1525 2 18 3 2 127434. 112522. 5877. o
1525 1 0 6 -2 127434. 112522. 5877. o
1526 1 1 6 2 6117. 6529. 9336. <
1527 1 1 6 -2 6191. 5980. 4333. <
1528 1 2 6 2 27245. 24530. 5983. o
1529 1 2 6 -2 27502. 25507. 4336. o
1530 1 3 6 2 122839. 125764. 4555. o
1531 1 3 6 -2 121971. 127289. 4414. o
1532 2 16 4 -2 37346. 36246. 7507. o
1532 1 4 6 2 37346. 36246. 7507. o
1533 2 16 4 2 36127. 36856. 8481. o
1533 1 4 6 -2 36127. 36856. 8481. o
1534 1 5 6 2 8842. 10618. 3416. o
1535 1 5 6 -2 9441. 10984. 3416. o
1536 1 6 6 2 1071. 2929. 3478. <
1537 1 6 6 -2 940. 1831. 3234. <
1538 1 7 6 2 106361. 104772. 3978. o
1539 1 7 6 -2 105827. 108922. 3575. o
1540 2 14 5 -2 114256. 129181. 9958. o
1540 1 8 6 2 114256. 129181. 9958. o
1541 2 14 5 2 114067. 105932. 8388. o
1541 1 8 6 -2 114067. 105932. 8388. o
1542 1 9 6 2 215196. 218820. 4407. o
1543 1 9 6 -2 216160. 218942. 3864. o
1544 1 10 6 2 67274. 63706. 3921. o
1545 1 10 6 -2 66854. 69014. 3038. o
1546 1 11 6 2 811. 2441. 3661. <
1547 1 11 6 -2 814. 2868. 2745. <
1548 2 12 6 -2 53151. 50525. 9096. o
1548 1 12 6 2 53151. 50525. 9096. o
1549 2 12 6 2 53346. 52417. 5921. o
1549 1 12 6 -2 53346. 52417. 5921. o
1550 1 13 6 2 20314. 21479. 3720. o
1551 1 13 6 -2 20277. 19954. 2991. o
1552 1 14 6 2 28837. 31853. 3593. o
1553 1 14 6 -2 28690. 31731. 2859. o
1554 1 15 6 2 24336. 32097. 3522. o
1555 1 15 6 -2 24679. 24286. 2564. o
1556 2 10 7 -2 12998. 20137. 7684. o
1556 1 16 6 2 12998. 20137. 7684. o
1557 2 10 7 2 13389. 12265. 3479. o
1557 1 16 6 -2 13389. 12265. 3479. o
1558 1 17 6 2 79448. 84147. 3264. o
1559 1 17 6 -2 78515. 82500. 2591. o
1560 1 18 6 2 218. -366. 2868. <
1561 1 18 6 -2 175. 1464. 2319. <
1562 1 19 6 2 18703. 20503. 2804. o
1563 1 19 6 -2 18272. 21357. 2189. o
1564 2 8 8 -2 27994. 25018. 5557. o
1564 1 20 6 2 27994. 25018. 5557. o
1565 2 8 8 2 27356. 27398. 2807. o
1565 1 20 6 -2 27356. 27398. 2807. o
1566 1 21 6 2 12850. 12753. 2685. o
1567 1 21 6 -2 12900. 12448. 2014. o
1568 1 22 6 2 21486. 18916. 2690. o
1569 1 22 6 -2 21555. 23615. 2130. o
1570 1 23 6 2 9394. 8604. 2686. o
1571 1 23 6 -2 9542. 7628. 2016. o
1572 2 6 9 -2 2596. 671. 5248. <
1572 1 24 6 2 2596. 671. 5248. <
1573 2 6 9 2 2562. 4088. 2806. <
1573 1 24 6 -2 2562. 4088. 2806. <
1574 1 25 6 2 1050. 1037. 2868. <
1575 1 25 6 -2 1045. 4210. 2012. o
1576 1 26 6 2 912. 3661. 2623. <
1577 1 26 6 -2 875. 3722. 2013. <
1578 1 27 6 2 282. 3661. 2806. <
1579 1 27 6 -2 325. 4455. 2012. o
1580 2 4 10 -2 17928. 14645. 5067. o
1580 1 28 6 2 17928. 14645. 5067. o
1581 2 4 10 2 18149. 18428. 3905. o
1581 1 28 6 -2 18149. 18428. 3905. o
1582 1 29 6 2 15682. 18001. 2742. o
1583 1 29 6 -2 16102. 16292. 2318. o
1584 1 30 6 2 1604. 5126. 2806. <
1585 1 30 6 -2 1655. 5553. 2256. o
1586 2 34 -3 -2 56544. 50891. 3562. o
1586 1 -26 7 2 56544. 50891. 3562. o
1587 2 34 -3 2 56975. 44484. 3344. o
1587 1 -26 7 -2 56975. 44484. 3344. o
1588 2 32 -2 -2 9082. 10679. 2928. o
1588 1 -22 7 2 9082. 10679. 2928. o
1589 2 32 -2 2 8973. 11655. 3110. o
1589 1 -22 7 -2 8973. 11655. 3110. o
1590 2 30 -1 -2 7131. 3478. 3175. <
1590 1 -18 7 2 7131. 3478. 3175. <
1591 2 30 -1 2 7074. 9092. 3050. o
1591 1 -18 7 -2 7074. 9092. 3050. o
1592 2 28 0 -2 5187. 4088. 2807. <
1592 1 -14 7 2 5187. 4088. 2807. <
1593 2 28 0 2 5238. 6163. 2928. o
1593 1 -14 7 -2 5238. 6163. 2928. o
1594 2 26 1 -2 35935. 35270. 3724. o
1594 1 -10 7 2 35935. 35270. 3724. o
1595 2 26 1 2 35814. 36978. 3475. o
1595 1 -10 7 -2 35814. 36978. 3475. o
1596 2 24 2 -2 9921. 12448. 4270. o
1596 1 -6 7 2 9921. 12448. 4270. o
1597 2 24 2 2 9983. 11350. 3721. o
1597 1 -6 7 -2 9983. 11350. 3721. o
1598 2 22 3 -2 64253. 43325. 16614. o
1598 1 -2 7 2 64253. 43325. 16614. o
1599 2 22 3 2 64274. 50769. 5346. o
1599 1 -2 7 -2 64274. 50769. 5346. o
1600 1 0 7 -2 102027. 108678. 6868. o
1601 1 1 7 -2 42671. 42592. 4333. o
1602 2 20 4 2 65689. 65780. 7139. o
1602 1 2 7 -2 65689. 65780. 7139. o
1603 1 3 7 2 27252. 27703. 6407. o
1604 1 3 7 -2 26789. 30327. 4387. o
1605 1 4 7 2 53688. 63217. 5280. o
1606 1 4 7 -2 53922. 55285. 4328. o
1607 1 5 7 2 10184. 11350. 4393. o
1608 1 5 7 -2 10362. 11106. 4210. o
1609 1 7 7 2 6243. 8055. 4026. <
1610 1 7 7 -2 6353. 6041. 3661. <
1611 1 8 7 2 1651. 1342. 3844. <
1612 1 8 7 -2 1684. 3783. 3478. <
1613 1 9 7 2 54196. 59190. 4621. o
1614 1 9 7 -2 54215. 55895. 3777. o
1615 2 16 6 -2 9701. 14096. 9457. <
1615 1 10 7 2 9701. 14096. 9457. <
1616 2 16 6 2 9526. 8787. 7994. <
1616 1 10 7 -2 9526. 8787. 7994. <
1617 1 11 7 2 9247. 11228. 3721. o
1618 1 11 7 -2 9482. 12570. 3109. o
1619 1 12 7 2 44709. 51379. 3699. o
1620 1 12 7 -2 45034. 45521. 3171. o
1621 1 13 7 2 6465. 5614. 3601. <
1622 1 13 7 -2 6251. 7139. 2745. o
1623 2 14 7 -2 4050. 4882. 9519. <
1623 1 14 7 2 4050. 4882. 9519. <
1624 2 14 7 2 4129. 2136. 5980. <
1624 1 14 7 -2 4129. 2136. 5980. <
1625 1 15 7 2 1806. 1281. 3600. <
1626 1 15 7 -2 1891. 3966. 2745. <
1627 1 16 7 2 2916. 1953. 3783. <
1628 1 16 7 -2 2896. 3905. 3295. <
1629 1 17 7 2 603. -1037. 3661. <
1630 1 17 7 -2 571. 2380. 2929. <
1631 2 12 8 -2 6205. 7322. 7932. <
1631 1 18 7 2 6205. 7322. 7932. <
1632 2 12 8 2 6153. 7811. 4271. <
1632 1 18 7 -2 6153. 7811. 4271. <
1633 1 19 7 2 5240. 9275. 3415. o
1634 1 19 7 -2 5283. 7506. 2744. o
1635 1 20 7 2 50059. 51562. 3289. o
1636 1 20 7 -2 50510. 50342. 2686. o
1637 1 21 7 2 4121. 3234. 2990. <
1638 1 21 7 -2 4350. 6529. 2745. o
1639 2 10 9 -2 10150. 7872. 7140. <
1639 1 22 7 2 10150. 7872. 7140. <
1640 2 10 9 2 9990. 12204. 4697. o
1640 1 22 7 -2 9990. 12204. 4697. o
1641 1 23 7 2 10617. 12936. 3110. o
1642 1 23 7 -2 10314. 11716. 2622. o
1643 1 24 7 2 7457. 9092. 2928. o
1644 1 24 7 -2 7224. 8970. 2561. o
1645 1 25 7 2 14343. 13608. 2991. o
1646 1 25 7 -2 14531. 18489. 2678. o
1647 2 8 10 -2 32552. 30205. 4398. o
1647 1 26 7 2 32552. 30205. 4398. o
1648 2 8 10 2 32881. 32158. 4151. o
1648 1 26 7 -2 32881. 32158. 4151. o
1649 1 27 7 2 17379. 19466. 2803. o
1650 1 27 7 -2 17150. 19954. 2618. o
1651 2 34 -1 -2 16169. 18245. 3353. o
1651 1 -20 8 2 16169. 18245. 3353. o
1652 2 34 -1 2 16144. 14889. 3358. o
1652 1 -20 8 -2 16144. 14889. 3358. o
1653 2 32 0 -2 21100. 21662. 3355. o
1653 1 -16 8 2 21100. 21662. 3355. o
1654 2 32 0 2 21229. 24652. 3227. o
1654 1 -16 8 -2 21229. 24652. 3227. o
1655 2 30 1 -2 11291. 15011. 3535. o
1655 1 -12 8 2 11291. 15011. 3535. o
1656 2 30 1 2 11248. 13119. 3293. o
1656 1 -12 8 -2 11248. 13119. 3293. o
1657 2 28 2 -2 27454. 25629. 4092. o
1657 1 -8 8 2 27454. 25629. 4092. o
1658 2 28 2 2 27023. 25812. 3481. o
1658 1 -8 8 -2 27023. 25812. 3481. o
1659 2 26 3 -2 46549. 46620. 7627. o
1659 1 -4 8 2 46549. 46620. 7627. o
1660 2 26 3 2 46358. 47291. 5368. o
1660 1 -4 8 -2 46358. 47291. 5368. o
1661 2 24 4 2 40675. 39358. 7263. o
1661 1 0 8 -2 40675. 39358. 7263. o
1662 1 1 8 -2 4027. 5309. 6285. <
1663 1 2 8 -2 9384. 10252. 5675. <
1664 1 3 8 -2 92411. 77679. 6034. o
1665 1 5 8 2 130290. 137479. 6551. o
1666 1 5 8 -2 128831. 134795. 5084. o
1667 1 6 8 2 15211. 17391. 4819. o
1668 1 6 8 -2 14883. 19038. 4084. o
1669 1 7 8 2 243. 2868. 4149. <
1670 1 7 8 -2 307. 1526. 3722. <
1671 1 9 8 2 30103. 34965. 3955. o
1672 1 9 8 -2 29479. 32097. 3472. o
1673 1 10 8 2 34056. 38077. 3834. o
1674 1 10 8 -2 34138. 33928. 3357. o
1675 1 11 8 2 6412. 5736. 3601. <
1676 1 11 8 -2 6425. 4516. 3052. <
1677 1 13 8 2 10052. 11899. 3354. o
1678 1 13 8 -2 10050. 9641. 2807. o
1679 1 14 8 2 211. 610. 2868. <
1680 1 14 8 -2 220. 305. 2990. <
1681 1 15 8 2 4316. 6407. 4637. <
1682 1 15 8 -2 4113. 8238. 3232. o
1683 2 16 8 -2 22724. 19954. 7264. o
1683 1 16 8 2 22724. 19954. 7264. o
1684 1 17 8 2 25056. 28070. 3900. o
1685 1 17 8 -2 25776. 27764. 3046. o
1686 1 18 8 2 1161. 4760. 3355. <
1687 1 18 8 -2 1109. 5126. 3111. <
1688 1 19 8 2 13310. 10923. 3419. o
1689 1 19 8 -2 13243. 9885. 2323. o
1690 2 14 9 -2 10627. 4882. 5921. <
1690 1 20 8 2 10627. 4882. 5921. <
1691 1 21 8 2 46078. 36673. 3567. o
1692 1 21 8 -2 46057. 35758. 4721. o
1693 1 22 8 2 9353. 10190. 3172. o
1694 1 22 8 -2 9354. 12326. 4025. o
1695 1 23 8 2 4274. 6224. 3111. <
1696 1 23 8 -2 4180. 6468. 3782. <
1697 2 36 0 -2 2965. 6895. 3782. <
1697 1 -18 9 2 2965. 6895. 3782. <
1698 2 36 0 2 2946. 6834. 3782. <
1698 1 -18 9 -2 2946. 6834. 3782. <
1699 2 34 1 -2 27640. 20869. 3794. o
1699 1 -14 9 2 27640. 20869. 3794. o
1700 2 34 1 2 27764. 21479. 3733. o
1700 1 -14 9 -2 27764. 21479. 3733. o
1701 2 32 2 -2 8151. 12143. 4452. o
1701 1 -10 9 2 8151. 12143. 4452. o
1702 2 32 2 2 8233. 6163. 4089. <
1702 1 -10 9 -2 8233. 6163. 4089. <
1703 2 30 3 -2 5201. 4455. 7567. <
1703 1 -6 9 2 5201. 4455. 7567. <
1704 2 30 3 2 5311. 4821. 5065. <
1704 1 -6 9 -2 5311. 4821. 5065. <
1705 2 28 4 2 3730. 2136. 8726. <
1705 1 -2 9 -2 3730. 2136. 8726. <
1706 1 3 9 -2 16910. 15865. 7201. o
1707 1 4 9 -2 11692. 12753. 6407. <
1708 1 5 9 -2 8703. 6956. 5615. <
1709 1 7 9 2 2319. 1159. 5736. <
1710 1 7 9 -2 2364. 4149. 4332. <
1711 1 8 9 2 16657. 13424. 5128. o
1712 1 8 9 -2 16829. 12448. 4214. o
1713 1 9 9 2 1052. 915. 4332. <
1714 1 9 9 -2 954. 3112. 4210. <
1715 1 11 9 2 11036. 11838. 4210. o
1716 1 11 9 -2 10884. 13424. 3781. o
1717 1 12 9 2 19813. 17757. 3908. o
1718 1 12 9 -2 19963. 18306. 3542. o
1719 1 13 9 2 12691. 11289. 3845. o
1720 1 13 9 -2 12908. 14950. 3537. o
1721 1 15 9 2 1969. 4393. 3722. <
1722 1 15 9 -2 1906. 4149. 3661. <
1723 1 16 9 2 17459. 15560. 3785. o
1724 1 16 9 -2 17247. 14584. 3359. o
1725 1 17 9 2 1292. 8787. 3597. o
1726 1 17 9 -2 1333. 5126. 3660. <
1727 1 19 9 2 5044. 9702. 3842. o
1728 1 19 9 -2 5120. 10374. 3658. o
1729 2 34 3 -2 34643. 19466. 9408. o
1729 1 -8 10 2 34643. 19466. 9408. o
1730 2 34 3 2 34718. 14523. 5391. o
1730 1 -8 10 -2 34718. 14523. 5391. o
1731 1 5 10 -2 3574. 5126. 8177. <
1732 1 6 10 -2 16013. 13669. 6897. <
1733 1 7 10 -2 39984. 26727. 6424. o
1734 1 9 10 2 31549. 17818. 7395. o
1735 1 9 10 -2 31975. 24103. 5198. o
1736 1 10 10 2 16166. 11960. 5922. o
1737 1 10 10 -2 16043. 10374. 4520. o
1738 1 11 10 2 1094. 6407. 5002. <
1739 1 11 10 -2 1027. 5309. 3904. <
1740 1 2 0 3 405. 2868. 7933. <
1741 1 2 0 -3 393. 3783. 8054. <
1742 2 -2 1 -3 114531. 123811. 6729. o
1742 1 4 0 3 114531. 123811. 6729. o
1743 2 -2 1 3 113715. 123201. 6790. o
1743 1 4 0 -3 113715. 123201. 6790. o
1744 1 6 0 3 20836. 19649. 5310. o
1745 1 6 0 -3 20473. 18428. 5372. o
1746 2 -4 2 -3 2880080. 2681800. 23122. o
1746 1 8 0 3 2880080. 2681800. 23122. o
1747 2 -4 2 3 2868080. 2807620. 14647. o
1747 1 8 0 -3 2868080. 2807620. 14647. o
1748 1 10 0 3 12653. 6407. 6226. <
1749 1 10 0 -3 12365. 13730. 3477. o
1750 2 -6 3 -3 80744. 76764. 5690. o
1750 1 12 0 3 80744. 76764. 5690. o
1751 2 -6 3 3 80245. 82195. 3160. o
1751 1 12 0 -3 80245. 82195. 3160. o
1752 1 14 0 3 2408. 2624. 4638. <
1753 1 14 0 -3 2362. 2868. 2624. <
1754 2 -8 4 -3 512932. 470957. 6935. o
1754 1 16 0 3 512932. 470957. 6935. o
1755 2 -8 4 3 514404. 501040. 4178. o
1755 1 16 0 -3 514404. 501040. 4178. o
1756 1 18 0 3 41464. 38626. 3791. o
1757 1 18 0 -3 40650. 45948. 2415. o
1758 2 -10 5 -3 167784. 156213. 4267. o
1758 1 20 0 3 167784. 156213. 4267. o
1759 2 -10 5 3 167109. 163230. 2569. o
1759 1 20 0 -3 167109. 163230. 2569. o
1760 1 22 0 3 2979. 1953. 3661. <
1761 1 22 0 -3 3057. 732. 1953. <
1762 2 -12 6 -3 17892. 12387. 3423. o
1762 1 24 0 3 17892. 12387. 3423. o
1763 2 -12 6 3 18159. 18672. 2196. o
1763 1 24 0 -3 18159. 18672. 2196. o
1764 1 26 0 3 2275. 2441. 3722. <
1765 1 26 0 -3 2205. 2807. 2136. <
1766 2 -14 7 -3 16794. 21296. 3716. o
1766 1 28 0 3 16794. 21296. 3716. o
1767 2 -14 7 3 16763. 18306. 2255. o
1767 1 28 0 -3 16763. 18306. 2255. o
1768 1 30 0 3 13371. 12875. 3723. o
1769 1 30 0 -3 13598. 13669. 2136. o
1770 2 -16 8 -3 22546. 26727. 3776. o
1770 1 32 0 3 22546. 26727. 3776. o
1771 2 -16 8 3 22348. 25629. 2187. o
1771 1 32 0 -3 22348. 25629. 2187. o
1772 1 34 0 3 2378. 8238. 3781. o
1773 1 34 0 -3 2404. 2685. 2136. <
1774 2 -18 9 -3 4517. 4149. 4150. <
1774 1 36 0 3 4517. 4149. 4150. <
1775 2 -18 9 3 4574. 5919. 2257. o
1775 1 36 0 -3 4574. 5919. 2257. o
1776 2 20 -8 -3 13529. 12143. 3907. o
1776 1 -34 1 3 13529. 12143. 3907. o
1777 2 20 -8 3 13507. 12448. 2198. o
1777 1 -34 1 -3 13507. 12448. 2198. o
1778 2 18 -7 -3 20977. 21601. 3660. o
1778 1 -30 1 3 20977. 21601. 3660. o
1779 2 18 -7 3 20785. 19160. 2140. o
1779 1 -30 1 -3 20785. 19160. 2140. o
1780 2 16 -6 -3 37967. 33378. 3247. o
1780 1 -26 1 3 37967. 33378. 3247. o
1781 2 16 -6 3 38474. 38443. 2014. o
1781 1 -26 1 -3 38474. 38443. 2014. o
1782 2 14 -5 -3 101472. 95009. 3767. o
1782 1 -22 1 3 101472. 95009. 3767. o
1783 2 14 -5 3 101732. 100623. 2150. o
1783 1 -22 1 -3 101732. 100623. 2150. o
1784 2 12 -4 -3 15861. 12021. 3848. o
1784 1 -18 1 3 15861. 12021. 3848. o
1785 2 12 -4 3 15724. 15438. 2197. o
1785 1 -18 1 -3 15724. 15438. 2197. o
1786 2 10 -3 -3 174788. 152979. 5422. o
1786 1 -14 1 3 174788. 152979. 5422. o
1787 2 10 -3 3 175373. 160301. 3205. o
1787 1 -14 1 -3 175373. 160301. 3205. o
1788 2 8 -2 -3 246748. 244021. 6921. o
1788 1 -10 1 3 246748. 244021. 6921. o
1789 2 8 -2 3 244691. 246950. 3867. o
1789 1 -10 1 -3 244691. 246950. 3867. o
1790 2 6 -1 -3 1067. 2075. 4698. <
1790 1 -6 1 3 1067. 2075. 4698. <
1791 2 6 -1 3 1004. 610. 4760. <
1791 1 -6 1 -3 1004. 610. 4760. <
1792 2 4 0 -3 152812. 161400. 7580. o
1792 1 -2 1 3 152812. 161400. 7580. o
1793 2 4 0 3 153377. 169271. 7536. o
1793 1 -2 1 -3 153377. 169271. 7536. o
1794 1 1 1 3 12574. 12936. 6773. <
1795 1 1 1 -3 12676. 8909. 6226. <
1796 2 2 1 -3 163586. 179340. 9319. o
1796 1 2 1 3 163586. 179340. 9319. o
1797 2 2 1 3 163907. 181292. 9433. o
1797 1 2 1 -3 163907. 181292. 9433. o
1798 1 3 1 3 6737. 6224. 4882. <
1799 1 3 1 -3 6529. 5309. 4882. <
1800 1 4 1 3 950. 1587. 4515. <
1801 1 4 1 -3 950. 0. 4149. <
1802 1 5 1 3 39216. 33439. 3919. o
1803 1 5 1 -3 39150. 36734. 4399. o
1804 1 6 1 3 893. 3783. 5491. <
1805 1 6 1 -3 812. 2807. 4942. <
1806 1 7 1 3 161727. 141568. 4337. o
1807 1 7 1 -3 162095. 149928. 3736. o
1808 1 8 1 3 7903. 9641. 4331. o
1809 1 8 1 -3 8003. 10496. 2560. o
1810 1 9 1 3 15818. 15072. 4394. o
1811 1 9 1 -3 15861. 13364. 2506. o
1812 2 -2 3 -3 263449. 256775. 7809. o
1812 1 10 1 3 263449. 256775. 7809. o
1813 2 -2 3 3 261445. 250429. 4092. o
1813 1 10 1 -3 261445. 250429. 4092. o
1814 1 11 1 3 3114. 3356. 3966. <
1815 1 11 1 -3 3197. 2685. 2197. <
1816 1 12 1 3 6657. 5065. 3845. <
1817 1 12 1 -3 6751. 4821. 2137. o
1818 1 13 1 3 22164. 20869. 3541. o
1819 1 13 1 -3 22330. 21357. 2016. o
1820 2 -4 4 -3 126739. 129242. 6027. o
1820 1 14 1 3 126739. 129242. 6027. o
1821 2 -4 4 3 127361. 129791. 3208. o
1821 1 14 1 -3 127361. 129791. 3208. o
1822 1 15 1 3 5947. 4638. 3174. <
1823 1 15 1 -3 5863. 6224. 1830. o
1824 1 16 1 3 488. -1159. 2990. <
1825 1 16 1 -3 464. 1831. 1708. <
1826 1 17 1 3 176644. 165122. 3566. o
1827 1 17 1 -3 176602. 170370. 2094. o
1828 2 -6 5 -3 15440. 14401. 4028. o
1828 1 18 1 3 15440. 14401. 4028. o
1829 2 -6 5 3 15305. 13180. 2444. o
1829 1 18 1 -3 15305. 13180. 2444. o
1830 1 19 1 3 174742. 155603. 3367. o
1831 1 19 1 -3 174717. 164756. 2115. o
1832 1 20 1 3 2461. 3783. 2440. <
1833 1 20 1 -3 2420. 2685. 1464. <
1834 1 21 1 3 9497. 9153. 2441. o
1835 1 21 1 -3 9470. 9824. 1464. o
1836 2 -8 6 -3 90573. 93667. 4315. o
1836 1 22 1 3 90573. 93667. 4315. o
1837 2 -8 6 3 90609. 96596. 2503. o
1837 1 22 1 -3 90609. 96596. 2503. o
1838 1 23 1 3 1432. 5370. 2561. o
1839 1 23 1 -3 1402. 122. 1587. <
1840 1 24 1 3 4733. 6712. 2684. o
1841 1 24 1 -3 4526. 6712. 1523. o
1842 1 25 1 3 273. 2807. 2684. <
1843 1 25 1 -3 274. 3173. 1524. o
1844 2 -10 7 -3 43296. 47718. 4320. o
1844 1 26 1 3 43296. 47718. 4320. o
1845 2 -10 7 3 43741. 45643. 2554. o
1845 1 26 1 -3 43741. 45643. 2554. o
1846 1 27 1 3 2797. 2441. 2624. <
1847 1 27 1 -3 2784. 5065. 1524. o
1848 1 28 1 3 388. 2624. 2562. <
1849 1 28 1 -3 429. 2624. 1525. <
1850 1 29 1 3 9799. 9702. 2624. o
1851 1 29 1 -3 9770. 10496. 1524. o
1852 2 -12 8 -3 18835. 19282. 4027. o
1852 1 30 1 3 18835. 19282. 4027. o
1853 2 -12 8 3 18648. 21784. 2311. o
1853 1 30 1 -3 18648. 21784. 2311. o
1854 1 31 1 3 24421. 25507. 2804. o
1855 1 31 1 -3 24319. 23676. 1528. o
1856 1 32 1 3 7337. 8665. 2745. o
1857 1 32 1 -3 7337. 10252. 1582. o
1858 1 33 1 3 1812. 5187. 2745. <
1859 1 33 1 -3 1812. 2746. 1525. <
1860 2 -14 9 -3 12738. 14218. 4270. o
1860 1 34 1 3 12738. 14218. 4270. o
1861 2 -14 9 3 12726. 12936. 2380. o
1861 1 34 1 -3 12726. 12936. 2380. o
1862 1 35 1 3 4608. 5126. 2868. <
1863 1 35 1 -3 4656. 8482. 1643. o
1864 1 36 1 3 677. 6041. 2866. o
1865 1 36 1 -3 670. 5248. 1645. o
1866 2 22 -7 -3 21955. 23920. 3841. o
1866 1 -32 2 3 21955. 23920. 3841. o
1867 2 22 -7 3 21662. 22761. 2072. o
1867 1 -32 2 -3 21662. 22761. 2072. o
1868 2 20 -6 -3 11082. 9580. 3418. o
1868 1 -28 2 3 11082. 9580. 3418. o
1869 2 20 -6 3 10792. 8665. 1894. o
1869 1 -28 2 -3 10792. 8665. 1894. o
1870 2 18 -5 -3 17098. 16048. 3358. o
1870 1 -24 2 3 17098. 16048. 3358. o
1871 2 18 -5 3 17258. 17879. 2012. o
1871 1 -24 2 -3 17258. 17879. 2012. o
1872 2 16 -4 -3 150008. 145412. 4313. o
1872 1 -20 2 3 150008. 145412. 4313. o
1873 2 16 -4 3 151003. 143215. 2504. o
1873 1 -20 2 -3 151003. 143215. 2504. o
1874 2 14 -3 -3 27343. 30205. 4266. o
1874 1 -16 2 3 27343. 30205. 4266. o
1875 2 14 -3 3 27316. 29351. 2373. o
1875 1 -16 2 -3 27316. 29351. 2373. o
1876 2 12 -2 -3 67557. 61692. 5328. o
1876 1 -12 2 3 67557. 61692. 5328. o
1877 2 12 -2 3 67579. 57786. 2684. o
1877 1 -12 2 -3 67579. 57786. 2684. o
1878 2 10 -1 -3 230350. 213206. 6681. o
1878 1 -8 2 3 230350. 213206. 6681. o
1879 2 10 -1 3 231207. 224190. 4968. o
1879 1 -8 2 -3 231207. 224190. 4968. o
1880 2 8 0 -3 2327550. 2284310. 13950. o
1880 1 -4 2 3 2327550. 2284310. 13950. o
1881 2 8 0 3 2332770. 2415870. 5857. o
1881 1 -4 2 -3 2332770. 2415870. 5857. o
1882 1 1 2 3 101587. 85917. 6104. o
1883 1 1 2 -3 101367. 90310. 5845. o
1884 1 2 2 3 10057. 9275. 5553. <
1885 1 2 2 -3 10410. 8482. 5615. <
1886 1 3 2 3 3067. 3966. 4515. <
1887 1 3 2 -3 2716. 2807. 4577. <
1888 2 4 2 -3 2182530. 2168250. 15670. o
1888 1 4 2 3 2182530. 2168250. 15670. o
1889 2 4 2 3 2184710. 2398720. 47931. o
1889 1 4 2 -3 2184710. 2398720. 47931. o
1890 1 5 2 3 233279. 216318. 4674. o
1891 1 5 2 -3 233173. 229377. 4748. o
1892 1 6 2 3 30331. 29778. 3967. o
1893 1 6 2 -3 30783. 30449. 3235. o
1894 1 7 2 3 75086. 67184. 3943. o
1895 1 7 2 -3 75148. 69136. 2907. o
1896 2 2 3 -3 243263. 234075. 7643. o
1896 1 8 2 3 243263. 234075. 7643. o
1897 2 2 3 3 243661. 233404. 4362. o
1897 1 8 2 -3 243661. 233404. 4362. o
1898 1 9 2 3 11217. 12692. 4087. o
1899 1 9 2 -3 11127. 11838. 2318. o
1900 1 10 2 3 26. 366. 3905. <
1901 1 10 2 -3 25. -183. 2136. <
1902 1 11 2 3 65904. 57420. 4122. o
1903 1 11 2 -3 66703. 60716. 2302. o
1904 1 12 2 3 55613. 52966. 5743. o
1905 1 12 2 -3 55642. 53149. 3124. o
1906 1 13 2 3 61626. 56383. 3987. o
1907 1 13 2 -3 61820. 58153. 2102. o
1908 1 14 2 3 1640. 1709. 3295. <
1909 1 14 2 -3 1595. 2441. 1830. <
1910 1 15 2 3 2535. 2807. 3173. <
1911 1 15 2 -3 2426. 5126. 1768. o
1912 2 -2 5 -3 45115. 40213. 5197. o
1912 1 16 2 3 45115. 40213. 5197. o
1913 2 -2 5 3 45059. 45155. 2623. o
1913 1 16 2 -3 45059. 45155. 2623. o
1914 1 17 2 3 14625. 14828. 2929. o
1915 1 17 2 -3 14956. 16292. 1644. o
1916 1 18 2 3 39519. 36673. 3304. o
1917 1 18 2 -3 39805. 38931. 1653. o
1918 1 19 2 3 11974. 12387. 2929. o
1919 1 19 2 -3 12035. 13669. 1644. o
1920 2 -4 6 -3 142514. 139066. 4847. o
1920 1 20 2 3 142514. 139066. 4847. o
1921 2 -4 6 3 143378. 145473. 2716. o
1921 1 20 2 -3 143378. 145473. 2716. o
1922 1 21 2 3 10090. 6041. 2688. o
1923 1 21 2 -3 10118. 10496. 1586. o
1924 1 22 2 3 2138. 4088. 2867. <
1925 1 22 2 -3 2176. 3722. 1586. o
1926 1 23 2 3 887. -915. 2929. <
1927 1 23 2 -3 876. 2563. 1525. <
1928 2 -6 7 -3 21410. 19588. 4335. o
1928 1 24 2 3 21410. 19588. 4335. o
1929 2 -6 7 3 21603. 22395. 2378. o
1929 1 24 2 -3 21603. 22395. 2378. o
1930 1 25 2 3 15889. 17391. 2743. o
1931 1 25 2 -3 15925. 18550. 1640. o
1932 1 26 2 3 3582. 4149. 2685. <
1933 1 26 2 -3 3521. 5553. 1524. o
1934 1 27 2 3 232. 8177. 2619. o
1935 1 27 2 -3 234. 1709. 1525. <
1936 2 -8 8 -3 10835. 10252. 4394. o
1936 1 28 2 3 10835. 10252. 4394. o
1937 2 -8 8 3 10539. 7567. 2383. o
1937 1 28 2 -3 10539. 7567. 2383. o
1938 1 29 2 3 10880. 9641. 2808. o
1939 1 29 2 -3 10723. 10801. 1525. o
1940 1 30 2 3 7931. 3112. 2748. <
1941 1 30 2 -3 7832. 8726. 1524. o
1942 1 31 2 3 4723. 4638. 2807. <
1943 1 31 2 -3 4673. 5858. 1585. o
1944 2 -10 9 -3 21922. 16109. 4400. o
1944 1 32 2 3 21922. 16109. 4400. o
1945 2 -10 9 3 21625. 23920. 2557. o
1945 1 32 2 -3 21625. 23920. 2557. o
1946 1 33 2 3 884. 2563. 2746. <
1947 1 33 2 -3 882. 5370. 1584. o
1948 1 34 2 3 2167. 2685. 2502. <
1949 1 34 2 -3 2218. 4455. 1585. o
1950 1 35 2 3 7802. 3478. 2870. <
1951 1 35 2 -3 7816. 7811. 1770. o
1952 2 26 -7 -3 10072. 8604. 3845. o
1952 1 -34 3 3 10072. 8604. 3845. o
1953 2 26 -7 3 10168. 8482. 2564. o
1953 1 -34 3 -3 10168. 8482. 2564. o
1954 2 24 -6 -3 3725. 4332. 3539. <
1954 1 -30 3 3 3725. 4332. 3539. <
1955 2 24 -6 3 3722. 3417. 2014. <
1955 1 -30 3 -3 3722. 3417. 2014. <
1956 2 22 -5 -3 43858. 47474. 3771. o
1956 1 -26 3 3 43858. 47474. 3771. o
1957 2 22 -5 3 43344. 44850. 2189. o
1957 1 -26 3 -3 43344. 44850. 2189. o
1958 2 20 -4 -3 22624. 27764. 3713. o
1958 1 -22 3 3 22624. 27764. 3713. o
1959 2 20 -4 3 22737. 17818. 2148. o
1959 1 -22 3 -3 22737. 17818. 2148. o
1960 2 18 -3 -3 1043. -1709. 3478. <
1960 1 -18 3 3 1043. -1709. 3478. <
1961 2 18 -3 3 1024. 1892. 1952. <
1961 1 -18 3 -3 1024. 1892. 1952. <
1962 2 16 -2 -3 17090. 22456. 4326. o
1962 1 -14 3 3 17090. 22456. 4326. o
1963 2 16 -2 3 17062. 21357. 2370. o
1963 1 -14 3 -3 17062. 21357. 2370. o
1964 2 14 -1 -3 258343. 249818. 6316. o
1964 1 -10 3 3 258343. 249818. 6316. o
1965 2 14 -1 3 258327. 249147. 3651. o
1965 1 -10 3 -3 258327. 249147. 3651. o
1966 2 12 0 -3 36998. 34110. 3851. o
1966 1 -6 3 3 36998. 34110. 3851. o
1967 2 12 0 3 36904. 32524. 4159. o
1967 1 -6 3 -3 36904. 32524. 4159. o
1968 2 10 1 -3 307631. 301747. 7387. o
1968 1 -2 3 3 307631. 301747. 7387. o
1969 2 10 1 3 308242. 315294. 6377. o
1969 1 -2 3 -3 308242. 315294. 6377. o
1970 1 1 3 3 60937. 54125. 5815. o
1971 1 1 3 -3 60513. 54796. 5021. o
1972 2 8 2 -3 303888. 320724. 11039. o
1972 1 2 3 3 303888. 320724. 11039. o
1973 2 8 2 3 303990. 322799. 11147. o
1973 1 2 3 -3 303990. 322799. 11147. o
1974 1 3 3 3 2051. 1648. 4516. <
1975 1 3 3 -3 2200. 2807. 5614. <
1976 1 4 3 3 12566. 13180. 4820. o
1977 1 4 3 -3 12259. 15072. 4452. o
1978 1 5 3 3 100994. 94826. 4854. o
1979 1 5 3 -3 101011. 99708. 4036. o
1980 2 6 3 -3 25205. 28619. 10005. o
1980 1 6 3 3 25205. 28619. 10005. o
1981 2 6 3 3 25040. 24408. 4944. o
1981 1 6 3 -3 25040. 24408. 4944. o
1982 1 7 3 3 27966. 27764. 5126. o
1983 1 7 3 -3 27671. 25080. 3057. o
1984 1 8 3 3 8872. 11899. 4269. o
1985 1 8 3 -3 8511. 10923. 2866. o
1986 1 9 3 3 31575. 28070. 4522. o
1987 1 9 3 -3 31743. 32585. 2316. o
1988 2 4 4 -3 233206. 224312. 7033. o
1988 1 10 3 3 233206. 224312. 7033. o
1989 2 4 4 3 233334. 227485. 4115. o
1989 1 10 3 -3 233334. 227485. 4115. o
1990 1 11 3 3 34165. 28985. 4038. o
1991 1 11 3 -3 34524. 32890. 2203. o
1992 1 12 3 3 39733. 45338. 4011. o
1993 1 12 3 -3 39939. 43813. 1992. o
1994 1 13 3 3 9658. 10068. 3600. o
1995 1 13 3 -3 9472. 8604. 1893. o
1996 2 2 5 -3 32034. 30388. 5616. o
1996 1 14 3 3 32034. 30388. 5616. o
1997 2 2 5 3 31977. 32646. 2927. o
1997 1 14 3 -3 31977. 32646. 2927. o
1998 1 15 3 3 1351. 3417. 3234. <
1999 1 15 3 -3 1347. 1342. 1831. <
2000 1 16 3 3 1473. 6651. 3049. o
2001 1 16 3 -3 1473. 4332. 1707. o
2002 1 17 3 3 22054. 20747. 3053. o
2003 1 17 3 -3 22133. 22517. 1646. o
2004 1 18 3 3 863. -2807. 4515. <
2005 1 18 3 -3 838. 549. 2563. <
2006 1 19 3 3 76629. 74201. 3371. o
2007 1 19 3 -3 76456. 75727. 1778. o
2008 1 20 3 3 45701. 46925. 2985. o
2009 1 20 3 -3 45784. 46559. 1764. o
2010 1 21 3 3 26337. 22761. 2815. o
2011 1 21 3 -3 26412. 26422. 1648. o
2012 2 -2 7 -3 21499. 22334. 4942. o
2012 1 22 3 3 21499. 22334. 4942. o
2013 2 -2 7 3 21616. 20442. 2261. o
2013 1 22 3 -3 21616. 20442. 2261. o
2014 1 23 3 3 2560. 5431. 2806. <
2015 1 23 3 -3 2605. 2380. 1526. <
2016 1 24 3 3 4945. 5065. 2868. <
2017 1 24 3 -3 4931. 4577. 1587. o
2018 1 25 3 3 22918. 27398. 3041. o
2019 1 25 3 -3 22983. 21052. 1654. o
2020 2 -4 8 -3 41718. 39968. 4703. o
2020 1 26 3 3 41718. 39968. 4703. o
2021 2 -4 8 3 41317. 48084. 2530. o
2021 1 26 3 -3 41317. 48084. 2530. o
2022 1 27 3 3 4970. 1464. 2686. <
2023 1 27 3 -3 4988. 4027. 1526. o
2024 1 28 3 3 6497. 5553. 2746. o
2025 1 28 3 -3 6478. 8787. 1522. o
2026 1 29 3 3 14595. 14828. 2685. o
2027 1 29 3 -3 14630. 14401. 1648. o
2028 2 -6 9 -3 2764. 4210. 4454. <
2028 1 30 3 3 2764. 4210. 4454. <
2029 2 -6 9 3 2778. 4638. 2440. <
2029 1 30 3 -3 2778. 4638. 2440. <
2030 1 31 3 3 308. 3112. 2806. <
2031 1 31 3 -3 285. 2746. 1647. <
2032 1 32 3 3 1874. 4088. 2989. <
2033 1 32 3 -3 1868. 6285. 1889. o
2034 1 33 3 3 6052. 4943. 2808. <
2035 1 33 3 -3 6000. 7628. 1829. o
2036 2 -8 10 -3 11600. 9946. 4700. o
2036 1 34 3 3 11600. 9946. 4700. o
2037 2 -8 10 3 11696. 11167. 2563. o
2037 1 34 3 -3 11696. 11167. 2563. o
2038 1 35 3 3 7333. 7445. 2990. o
2039 1 35 3 -3 7482. 11167. 2009. o
2040 2 28 -6 -3 12800. 15560. 4025. o
2040 1 -32 4 3 12800. 15560. 4025. o
2041 2 28 -6 3 12667. 15621. 2803. o
2041 1 -32 4 -3 12667. 15621. 2803. o
2042 2 26 -5 -3 6408. 14889. 3654. o
2042 1 -28 4 3 6408. 14889. 3654. o
2043 2 26 -5 3 6282. 10740. 2008. o
2043 1 -28 4 -3 6282. 10740. 2008. o
2044 2 24 -4 -3 11314. 5919. 4335. <
2044 1 -24 4 3 11314. 5919. 4335. <
2045 2 24 -4 3 11224. 8543. 2261. o
2045 1 -24 4 -3 11224. 8543. 2261. o
2046 2 22 -3 -3 26653. 23249. 4216. o
2046 1 -20 4 3 26653. 23249. 4216. o
2047 2 22 -3 3 26481. 29900. 2430. o
2047 1 -20 4 -3 26481. 29900. 2430. o
2048 2 20 -2 -3 90649. 98365. 4533. o
2048 1 -16 4 3 90649. 98365. 4533. o
2049 2 20 -2 3 89939. 94277. 2768. o
2049 1 -16 4 -3 89939. 94277. 2768. o
2050 2 18 -1 -3 57985. 57542. 4883. o
2050 1 -12 4 3 57985. 57542. 4883. o
2051 2 18 -1 3 58577. 60838. 2671. o
2051 1 -12 4 -3 58577. 60838. 2671. o
2052 2 16 0 -3 408351. 389373. 8063. o
2052 1 -8 4 3 408351. 389373. 8063. o
2053 2 16 0 3 408764. 409265. 4197. o
2053 1 -8 4 -3 408764. 409265. 4197. o
2054 2 14 1 -3 35124. 45888. 4059. o
2054 1 -4 4 3 35124. 45888. 4059. o
2055 2 14 1 3 34930. 48878. 4294. o
2055 1 -4 4 -3 34930. 48878. 4294. o
2056 1 1 4 3 180847. 190262. 5220. o
2057 1 1 4 -3 180922. 156823. 5681. o
2058 1 2 4 3 2806. 2258. 4027. <
2059 1 2 4 -3 2783. 549. 4455. <
2060 1 3 4 3 15440. 15804. 4027. o
2061 1 3 4 -3 15122. 15926. 4210. o
2062 2 10 3 -3 57876. 66024. 9321. o
2062 1 4 4 3 57876. 66024. 9321. o
2063 2 10 3 3 57783. 66879. 8525. o
2063 1 4 4 -3 57783. 66879. 8525. o
2064 1 5 4 3 115710. 98731. 4381. o
2065 1 5 4 -3 114269. 117099. 4006. o
2066 1 6 4 3 50534. 39053. 5516. o
2067 1 6 4 -3 50316. 42104. 5145. o
2068 1 7 4 3 211861. 211131. 6170. o
2069 1 7 4 -3 214197. 209606. 3671. o
2070 2 8 4 -3 380152. 437091. 10454. o
2070 1 8 4 3 380152. 437091. 10454. o
2071 2 8 4 3 380745. 394193. 5805. o
2071 1 8 4 -3 380745. 394193. 5805. o
2072 1 9 4 3 53209. 54552. 5000. o
2073 1 9 4 -3 53398. 51929. 2449. o
2074 1 10 4 3 17174. 20930. 3961. o
2075 1 10 4 -3 17350. 18550. 2255. o
2076 1 11 4 3 6450. 4821. 3967. <
2077 1 11 4 -3 6333. 6529. 2197. o
2078 2 6 5 -3 69261. 72859. 6458. o
2078 1 12 4 3 69261. 72859. 6458. o
2079 2 6 5 3 69727. 72432. 3218. o
2079 1 12 4 -3 69727. 72432. 3218. o
2080 1 13 4 3 90232. 91165. 3900. o
2081 1 13 4 -3 90337. 91592. 2060. o
2082 1 14 4 3 941. 366. 3417. <
2083 1 14 4 -3 860. 2746. 1891. <
2084 1 15 4 3 9302. 7933. 3357. o
2085 1 15 4 -3 9375. 6163. 1834. o
2086 2 4 6 -3 66686. 66512. 4760. o
2086 1 16 4 3 66686. 66512. 4760. o
2087 2 4 6 3 66148. 65353. 2995. o
2087 1 16 4 -3 66148. 65353. 2995. o
2088 1 17 4 3 140489. 143093. 3573. o
2089 1 17 4 -3 139933. 139798. 1955. o
2090 1 18 4 3 9549. 11472. 3416. o
2091 1 18 4 -3 9744. 10252. 1708. o
2092 1 19 4 3 40677. 40762. 3600. o
2093 1 19 4 -3 40454. 38748. 1840. o
2094 2 2 7 -3 26572. 24347. 5251. o
2094 1 20 4 3 26572. 24347. 5251. o
2095 2 2 7 3 26455. 24591. 2507. o
2095 1 20 4 -3 26455. 24591. 2507. o
2096 1 21 4 3 18637. 19222. 3050. o
2097 1 21 4 -3 18729. 18855. 1708. o
2098 1 22 4 3 25. 366. 3173. <
2099 1 22 4 -3 21. 2563. 1647. <
2100 1 23 4 3 22445. 22578. 2990. o
2101 1 23 4 -3 22623. 23493. 1828. o
2102 1 24 4 3 9335. 15255. 5244. o
2103 1 24 4 -3 9220. 7628. 2320. o
2104 1 25 4 3 212. -2746. 2929. <
2105 1 25 4 -3 201. 854. 1647. <
2106 1 26 4 3 3771. 5309. 2928. <
2107 1 26 4 -3 3750. 1648. 1587. <
2108 1 27 4 3 731. -1098. 2868. <
2109 1 27 4 -3 743. 2319. 1647. <
2110 2 -2 9 -3 8471. 9702. 4576. o
2110 1 28 4 3 8471. 9702. 4576. o
2111 2 -2 9 3 8392. 8848. 2623. o
2111 1 28 4 -3 8392. 8848. 2623. o
2112 1 29 4 3 348. 1159. 2685. <
2113 1 29 4 -3 385. 3661. 1768. o
2114 1 30 4 3 19857. 20442. 2928. o
2115 1 30 4 -3 19754. 21418. 1887. o
2116 1 31 4 3 4159. 5736. 2745. o
2117 1 31 4 -3 4161. 8177. 1765. o
2118 2 -4 10 -3 12516. 13364. 4454. o
2118 1 32 4 3 12516. 13364. 4454. o
2119 2 -4 10 3 12388. 20259. 2426. o
2119 1 32 4 -3 12388. 20259. 2426. o
2120 1 33 4 3 2969. 10984. 2434. o
2121 1 33 4 -3 2971. 5431. 1829. o
2122 2 30 -5 -3 1997. 2441. 2990. <
2122 1 -30 5 3 1997. 2441. 2990. <
2123 2 30 -5 3 1956. 10434. 2862. o
2123 1 -30 5 -3 1956. 10434. 2862. o
2124 2 28 -4 -3 7505. 3234. 3907. <
2124 1 -26 5 3 7505. 3234. 3907. <
2125 2 28 -4 3 7695. 8787. 2928. o
2125 1 -26 5 -3 7695. 8787. 2928. o
2126 2 26 -3 -3 48115. 60288. 4967. o
2126 1 -22 5 3 48115. 60288. 4967. o
2127 2 26 -3 3 48717. 53210. 2969. o
2127 1 -22 5 -3 48717. 53210. 2969. o
2128 2 24 -2 -3 6633. 8726. 4026. o
2128 1 -18 5 3 6633. 8726. 4026. o
2129 2 24 -2 3 6518. 6956. 2440. o
2129 1 -18 5 -3 6518. 6956. 2440. o
2130 2 22 -1 -3 93816. 94094. 4697. o
2130 1 -14 5 3 93816. 94094. 4697. o
2131 2 22 -1 3 93144. 96779. 2835. o
2131 1 -14 5 -3 93144. 96779. 2835. o
2132 2 20 0 -3 57109. 52905. 5259. o
2132 1 -10 5 3 57109. 52905. 5259. o
2133 2 20 0 3 57484. 55285. 2576. o
2133 1 -10 5 -3 57484. 55285. 2576. o
2134 2 18 1 -3 55895. 54125. 5375. o
2134 1 -6 5 3 55895. 54125. 5375. o
2135 2 18 1 3 56477. 54919. 3485. o
2135 1 -6 5 -3 56477. 54919. 3485. o
2136 2 16 2 -3 99090. 96352. 4288. o
2136 1 -2 5 3 99090. 96352. 4288. o
2137 2 16 2 3 99195. 95253. 7215. o
2137 1 -2 5 -3 99195. 95253. 7215. o
2138 1 1 5 3 7254. 6041. 3967. <
2139 1 1 5 -3 6758. 5248. 5248. <
2140 2 14 3 -3 96301. 95070. 6412. o
2140 1 2 5 3 96301. 95070. 6412. o
2141 2 14 3 3 96406. 103918. 9742. o
2141 1 2 5 -3 96406. 103918. 9742. o
2142 1 3 5 3 2580. 2685. 2929. <
2143 1 3 5 -3 2570. 1159. 5126. <
2144 1 4 5 3 23326. 19832. 3606. o
2145 1 4 5 -3 23325. 18611. 4826. o
2146 1 5 5 3 3767. 4577. 4393. <
2147 1 5 5 -3 3802. 5004. 3112. <
2148 2 12 4 -3 67563. 70967. 8230. o
2148 1 6 5 3 67563. 70967. 8230. o
2149 2 12 4 3 68016. 66329. 7144. o
2149 1 6 5 -3 68016. 66329. 7144. o
2150 1 7 5 3 447. 2075. 4698. <
2151 1 7 5 -3 470. 732. 2807. <
2152 1 8 5 3 1869. 4149. 4881. <
2153 1 8 5 -3 1943. 3173. 2929. <
2154 1 9 5 3 10873. 11228. 4454. o
2155 1 9 5 -3 10933. 11777. 3294. o
2156 2 10 5 -3 27329. 38870. 8102. o
2156 1 10 5 3 27329. 38870. 8102. o
2157 2 10 5 3 27518. 30693. 4571. o
2157 1 10 5 -3 27518. 30693. 4571. o
2158 1 11 5 3 7152. 5492. 4150. <
2159 1 11 5 -3 6968. 5980. 2320. o
2160 1 12 5 3 7651. 9702. 4026. o
2161 1 12 5 -3 7483. 6834. 2014. o
2162 1 13 5 3 65694. 66452. 3963. o
2163 1 13 5 -3 66010. 69319. 2169. o
2164 2 8 6 -3 80817. 87565. 6628. o
2164 1 14 5 3 80817. 87565. 6628. o
2165 2 8 6 3 80087. 79449. 3299. o
2165 1 14 5 -3 80087. 79449. 3299. o
2166 1 15 5 3 6323. 10862. 3536. o
2167 1 15 5 -3 6370. 8055. 1890. o
2168 1 16 5 3 32353. 37345. 3648. o
2169 1 16 5 -3 32374. 33744. 1946. o
2170 1 17 5 3 37203. 36856. 3723. o
2171 1 17 5 -3 37058. 36368. 1956. o
2172 2 6 7 -3 8024. 4577. 4700. <
2172 1 18 5 3 8024. 4577. 4700. <
2173 2 6 7 3 7991. 5126. 2931. <
2173 1 18 5 -3 7991. 5126. 2931. <
2174 1 19 5 3 754. 4943. 3416. <
2175 1 19 5 -3 725. 2990. 1769. <
2176 1 20 5 3 14583. 15865. 3477. o
2177 1 20 5 -3 14510. 14767. 1891. o
2178 1 21 5 3 51409. 49305. 3364. o
2179 1 21 5 -3 51083. 49854. 2083. o
2180 2 4 8 -3 47427. 48023. 5490. o
2180 1 22 5 3 47427. 48023. 5490. o
2181 2 4 8 3 47945. 46681. 2691. o
2181 1 22 5 -3 47945. 46681. 2691. o
2182 1 23 5 3 37464. 41616. 3220. o
2183 1 23 5 -3 37719. 39846. 1880. o
2184 1 24 5 3 26954. 25324. 3116. o
2185 1 24 5 -3 27304. 30205. 1880. o
2186 1 25 5 3 17680. 20747. 3229. o
2187 1 25 5 -3 17361. 18062. 1951. o
2188 2 2 9 -3 9938. 3417. 4701. <
2188 1 26 5 3 9938. 3417. 4701. <
2189 2 2 9 3 10118. 6285. 2627. o
2189 1 26 5 -3 10118. 6285. 2627. o
2190 1 27 5 3 2746. 5431. 3111. <
2191 1 27 5 -3 2731. 3051. 1892. <
2192 1 28 5 3 168. 4638. 2561. <
2193 1 28 5 -3 169. 2441. 2013. <
2194 1 29 5 3 1250. 5980. 2500. o
2195 1 29 5 -3 1252. 4332. 1890. o
2196 1 30 5 3 1653. 6346. 5308. <
2197 1 30 5 -3 1601. 5431. 2744. <
2198 1 31 5 3 404. 4516. 2500. <
2199 1 31 5 -3 400. 4210. 1890. o
2200 1 32 5 3 11514. 8238. 2749. o
2201 1 32 5 -3 11591. 13058. 2133. o
2202 2 32 -4 -3 4516. 5675. 2989. <
2202 1 -28 6 3 4516. 5675. 2989. <
2203 2 32 -4 3 4578. 6712. 2745. o
2203 1 -28 6 -3 4578. 6712. 2745. o
2204 2 30 -3 -3 11490. 17879. 2981. o
2204 1 -24 6 3 11490. 17879. 2981. o
2205 2 30 -3 3 11605. 12448. 3050. o
2205 1 -24 6 -3 11605. 12448. 3050. o
2206 2 28 -2 -3 6563. 10618. 3048. o
2206 1 -20 6 3 6563. 10618. 3048. o
2207 2 28 -2 3 6624. 7994. 3233. o
2207 1 -20 6 -3 6624. 7994. 3233. o
2208 2 26 -1 -3 34866. 37772. 3103. o
2208 1 -16 6 3 34866. 37772. 3103. o
2209 2 26 -1 3 34584. 38809. 3037. o
2209 1 -16 6 -3 34584. 38809. 3037. o
2210 2 24 0 -3 66936. 66634. 3236. o
2210 1 -12 6 3 66936. 66634. 3236. o
2211 2 24 0 3 66229. 70052. 3212. o
2211 1 -12 6 -3 66229. 70052. 3212. o
2212 2 22 1 -3 42216. 40945. 3360. o
2212 1 -8 6 3 42216. 40945. 3360. o
2213 2 22 1 3 42580. 39602. 2940. o
2213 1 -8 6 -3 42580. 39602. 2940. o
2214 2 20 2 -3 55068. 55041. 4455. o
2214 1 -4 6 3 55068. 55041. 4455. o
2215 2 20 2 3 54959. 58092. 3771. o
2215 1 -4 6 -3 54959. 58092. 3771. o
2216 1 1 6 3 5454. 5614. 5431. <
2217 1 1 6 -3 5407. 8787. 5674. <
2218 1 2 6 3 3026. 3356. 4454. <
2219 1 2 6 -3 3187. 3051. 4943. <
2220 1 3 6 3 19670. 23859. 3838. o
2221 1 3 6 -3 19682. 23981. 3654. o
2222 2 16 4 -3 38631. 46925. 6759. o
2222 1 4 6 3 38631. 46925. 6759. o
2223 2 16 4 3 38823. 40518. 7259. o
2223 1 4 6 -3 38823. 40518. 7259. o
2224 1 5 6 3 219010. 223213. 4337. o
2225 1 5 6 -3 221178. 220712. 4095. o
2226 1 6 6 3 4176. 4760. 3234. <
2227 1 6 6 -3 4181. 5309. 2990. <
2228 1 7 6 3 108172. 112949. 3746. o
2229 1 7 6 -3 107245. 111180. 3322. o
2230 2 14 5 -3 40056. 32463. 7210. o
2230 1 8 6 3 40056. 32463. 7210. o
2231 2 14 5 3 40587. 32341. 6176. o
2231 1 8 6 -3 40587. 32341. 6176. o
2232 1 9 6 3 65724. 64743. 3666. o
2233 1 9 6 -3 65773. 65231. 3115. o
2234 1 10 6 3 2880. 4149. 3356. <
2235 1 10 6 -3 2825. 5065. 2623. <
2236 1 11 6 3 6754. 5553. 3479. <
2237 1 11 6 -3 6837. 8909. 2561. o
2238 2 12 6 -3 80154. 64377. 8638. o
2238 1 12 6 3 80154. 64377. 8638. o
2239 2 12 6 3 79618. 84392. 7063. o
2239 1 12 6 -3 79618. 84392. 7063. o
2240 1 13 6 3 30395. 32829. 3717. o
2241 1 13 6 -3 30319. 34965. 3160. o
2242 1 14 6 3 13184. 16659. 3535. o
2243 1 14 6 -3 13296. 17757. 2861. o
2244 1 15 6 3 11351. 12814. 3172. o
2245 1 15 6 -3 11500. 15438. 2557. o
2246 2 10 7 -3 39204. 44850. 7497. o
2246 1 16 6 3 39204. 44850. 7497. o
2247 2 10 7 3 38999. 35636. 3792. o
2247 1 16 6 -3 38999. 35636. 3792. o
2248 1 17 6 3 17846. 22028. 3105. o
2249 1 17 6 -3 17681. 20747. 2373. o
2250 1 18 6 3 27784. 26056. 3055. o
2251 1 18 6 -3 27397. 28619. 2315. o
2252 1 19 6 3 35574. 41555. 2969. o
2253 1 19 6 -3 36504. 37223. 2194. o
2254 2 8 8 -3 5175. 8665. 5552. <
2254 1 20 6 3 5175. 8665. 5552. <
2255 2 8 8 3 5168. 6651. 2867. o
2255 1 20 6 -3 5168. 6651. 2867. o
2256 1 21 6 3 37906. 38199. 2806. o
2257 1 21 6 -3 37824. 39663. 2127. o
2258 1 22 6 3 718. 3173. 2562. <
2259 1 22 6 -3 722. 549. 1953. <
2260 1 23 6 3 1948. 1648. 2624. <
2261 1 23 6 -3 1997. 3417. 2074. <
2262 2 6 9 -3 12687. 5858. 5678. <
2262 1 24 6 3 12687. 5858. 5678. <
2263 2 6 9 3 12799. 13424. 2806. o
2263 1 24 6 -3 12799. 13424. 2806. o
2264 1 25 6 3 7692. 10068. 2805. o
2265 1 25 6 -3 7775. 8482. 2013. o
2266 1 26 6 3 4523. 5492. 2929. <
2267 1 26 6 -3 4554. 6224. 2073. o
2268 1 27 6 3 3216. 4882. 2623. <
2269 1 27 6 -3 3305. 8238. 2071. o
2270 2 4 10 -3 2022. 9397. 6405. <
2270 1 28 6 3 2022. 9397. 6405. <
2271 2 4 10 3 2053. 3234. 2929. <
2271 1 28 6 -3 2053. 3234. 2929. <
2272 1 29 6 3 15839. 14889. 2686. o
2273 1 29 6 -3 15707. 17696. 2131. o
2274 1 30 6 3 3224. 8665. 2926. o
2275 1 30 6 -3 3130. 7445. 2194. o
2276 2 34 -3 -3 6255. 4760. 3052. <
2276 1 -26 7 3 6255. 4760. 3052. <
2277 2 34 -3 3 6281. 12509. 3106. o
2277 1 -26 7 -3 6281. 12509. 3106. o
2278 2 32 -2 -3 6039. 6956. 3112. o
2278 1 -22 7 3 6039. 6956. 3112. o
2279 2 32 -2 3 6078. 6956. 2867. o
2279 1 -22 7 -3 6078. 6956. 2867. o
2280 2 30 -1 -3 29629. 32951. 3103. o
2280 1 -18 7 3 29629. 32951. 3103. o
2281 2 30 -1 3 29884. 32158. 3228. o
2281 1 -18 7 -3 29884. 32158. 3228. o
2282 2 28 0 -3 12700. 15133. 2987. o
2282 1 -14 7 3 12700. 15133. 2987. o
2283 2 28 0 3 12541. 16964. 2984. o
2283 1 -14 7 -3 12541. 16964. 2984. o
2284 2 26 1 -3 59135. 64560. 3821. o
2284 1 -10 7 3 59135. 64560. 3821. o
2285 2 26 1 3 59146. 60960. 3531. o
2285 1 -10 7 -3 59146. 60960. 3531. o
2286 2 24 2 -3 26695. 26666. 4333. o
2286 1 -6 7 3 26695. 26666. 4333. o
2287 2 24 2 3 26423. 27154. 3904. o
2287 1 -6 7 -3 26423. 27154. 3904. o
2288 2 22 3 3 21069. 16659. 4825. o
2288 1 -2 7 -3 21069. 16659. 4825. o
2289 1 1 7 -3 82867. 79388. 4167. o
2290 2 20 4 3 22154. 22578. 8665. o
2290 1 2 7 -3 22154. 22578. 8665. o
2291 1 3 7 3 5070. 8360. 6589. <
2292 1 3 7 -3 5183. 5614. 4027. <
2293 1 4 7 3 64292. 70418. 4491. o
2294 1 4 7 -3 64304. 70113. 4185. o
2295 1 5 7 3 18496. 18001. 3967. o
2296 1 5 7 -3 18389. 18184. 3906. o
2297 2 18 5 -3 23804. 25568. 7748. o
2297 1 6 7 3 23804. 25568. 7748. o
2298 2 18 5 3 23581. 26544. 7503. o
2298 1 6 7 -3 23581. 26544. 7503. o
2299 1 7 7 3 2967. 4760. 3661. <
2300 1 7 7 -3 2989. 4882. 3294. <
2301 1 8 7 3 13901. 15316. 3660. o
2302 1 8 7 -3 13538. 18367. 3411. o
2303 1 9 7 3 11222. 12265. 3599. o
2304 1 9 7 -3 11081. 10862. 3234. o
2305 2 16 6 -3 58172. 66268. 8466. o
2305 1 10 7 3 58172. 66268. 8466. o
2306 2 16 6 3 58322. 55163. 7024. o
2306 1 10 7 -3 58322. 55163. 7024. o
2307 1 11 7 3 4207. 4393. 3539. <
2308 1 11 7 -3 3998. 3966. 2868. <
2309 1 12 7 3 8585. 12265. 3658. o
2310 1 12 7 -3 8680. 7933. 2686. o
2311 1 13 7 3 4602. 4210. 3661. <
2312 1 13 7 -3 4599. 2807. 2625. <
2313 2 14 7 -3 11584. 4577. 9093. <
2313 1 14 7 3 11584. 4577. 9093. <
2314 2 14 7 3 11448. 11655. 5614. o
2314 1 14 7 -3 11448. 11655. 5614. o
2315 1 15 7 3 888. 2136. 3600. <
2316 1 15 7 -3 904. -732. 2624. <
2317 1 16 7 3 35192. 33928. 3786. o
2318 1 16 7 -3 35265. 36795. 4085. o
2319 1 17 7 3 505. 1648. 3417. <
2320 1 17 7 -3 524. 1342. 3051. <
2321 2 12 8 -3 30016. 28741. 8361. o
2321 1 18 7 3 30016. 28741. 8361. o
2322 2 12 8 3 30196. 29656. 4577. o
2322 1 18 7 -3 30196. 29656. 4577. o
2323 1 19 7 3 1810. 5919. 3294. <
2324 1 19 7 -3 1844. 3173. 2746. <
2325 1 20 7 3 7683. 11533. 3292. o
2326 1 20 7 -3 7670. 7200. 2563. o
2327 1 21 7 3 1718. 7261. 3109. o
2328 1 21 7 -3 1787. 2685. 2441. <
2329 2 10 9 -3 1767. 244. 6590. <
2329 1 22 7 3 1767. 244. 6590. <
2330 2 10 9 3 1744. 5492. 3416. <
2330 1 22 7 -3 1744. 5492. 3416. <
2331 1 23 7 3 1327. 1587. 2990. <
2332 1 23 7 -3 1357. 4577. 2379. <
2333 1 24 7 3 11287. 12753. 2805. o
2334 1 24 7 -3 11455. 11899. 2257. o
2335 1 25 7 3 17477. 16842. 3052. o
2336 1 25 7 -3 17596. 17391. 2258. o
2337 2 8 10 -3 6729. 11777. 7138. <
2337 1 26 7 3 6729. 11777. 7138. <
2338 2 8 10 3 6768. 6773. 3722. <
2338 1 26 7 -3 6768. 6773. 3722. <
2339 1 27 7 3 12198. 12692. 3234. o
2340 1 27 7 -3 12215. 14828. 2498. o
2341 2 34 -1 -3 8045. 14950. 3410. o
2341 1 -20 8 3 8045. 14950. 3410. o
2342 2 34 -1 3 8135. 11289. 2987. o
2342 1 -20 8 -3 8135. 11289. 2987. o
2343 2 32 0 -3 5840. 7506. 3599. o
2343 1 -16 8 3 5840. 7506. 3599. o
2344 2 32 0 3 5869. 7384. 2989. o
2344 1 -16 8 -3 5869. 7384. 2989. o
2345 2 30 1 -3 19720. 20076. 3478. o
2345 1 -12 8 3 19720. 20076. 3478. o
2346 2 30 1 3 19952. 20381. 3172. o
2346 1 -12 8 -3 19952. 20381. 3172. o
2347 2 28 2 -3 5362. 4332. 3845. <
2347 1 -8 8 3 5362. 4332. 3845. <
2348 2 28 2 3 5451. 7872. 3721. o
2348 1 -8 8 -3 5451. 7872. 3721. o
2349 2 26 3 -3 38490. 40213. 9456. o
2349 1 -4 8 3 38490. 40213. 9456. o
2350 2 26 3 3 38565. 35819. 4582. o
2350 1 -4 8 -3 38565. 35819. 4582. o
2351 1 1 8 -3 823. 2563. 3966. <
2352 1 2 8 -3 32863. 31304. 4275. o
2353 1 3 8 -3 33525. 30144. 4948. o
2354 1 5 8 3 24244. 29656. 5912. o
2355 1 5 8 -3 23817. 27581. 4143. o
2356 1 6 8 3 2362. 3722. 4942. <
2357 1 6 8 -3 2379. 2929. 3905. <
2358 1 7 8 3 99214. 110203. 5003. o
2359 1 7 8 -3 100489. 98426. 4223. o
2360 1 9 8 3 40212. 43996. 3955. o
2361 1 9 8 -3 40196. 41067. 3659. o
2362 1 10 8 3 1061. 1098. 3722. <
2363 1 10 8 -3 1073. 3295. 3112. <
2364 1 11 8 3 22842. 24774. 3658. o
2365 1 11 8 -3 22963. 26239. 3350. o
2366 1 13 8 3 4007. 5065. 4149. <
2367 1 13 8 -3 3989. 5614. 3111. <
2368 1 14 8 3 5722. 4699. 4089. <
2369 1 14 8 -3 5718. 4638. 3174. <
2370 1 15 8 3 1292. 5858. 3904. <
2371 1 15 8 -3 1340. 2685. 3112. <
2372 2 16 8 -3 1376. 5004. 9275. <
2372 1 16 8 3 1376. 5004. 9275. <
2373 1 17 8 3 22062. 22700. 3965. o
2374 1 17 8 -3 22302. 24896. 3351. o
2375 1 18 8 3 12746. 14096. 4026. o
2376 1 18 8 -3 12572. 14767. 3109. o
2377 1 19 8 3 39422. 29168. 3928. o
2378 1 19 8 -3 39190. 38016. 3116. o
2379 2 14 9 -3 5814. 8665. 9274. <
2379 1 20 8 3 5814. 8665. 9274. <
2380 1 21 8 3 5027. 8848. 3659. o
2381 1 21 8 -3 5029. 6956. 5003. <
2382 1 22 8 3 885. 4943. 3477. <
2383 1 22 8 -3 889. 5797. 4209. <
2384 1 23 8 3 2165. 6224. 2927. o
2385 1 23 8 -3 2138. 6346. 4026. <
2386 2 36 0 -3 3581. 6834. 3599. <
2386 1 -18 9 3 3581. 6834. 3599. <
2387 2 36 0 3 3528. 5553. 3966. <
2387 1 -18 9 -3 3528. 5553. 3966. <
2388 2 34 1 -3 4430. 5858. 3600. <
2388 1 -14 9 3 4430. 5858. 3600. <
2389 2 34 1 3 4472. 4210. 3661. <
2389 1 -14 9 -3 4472. 4210. 3661. <
2390 2 32 2 -3 5844. 9153. 4453. o
2390 1 -10 9 3 5844. 9153. 4453. o
2391 2 32 2 3 5900. 7445. 3905. <
2391 1 -10 9 -3 5900. 7445. 3905. <
2392 2 30 3 -3 7066. 6956. 8726. <
2392 1 -6 9 3 7066. 6956. 8726. <
2393 2 30 3 3 7100. 6956. 4516. <
2393 1 -6 9 -3 7100. 6956. 4516. <
2394 2 28 4 3 17141. 16598. 6713. o
2394 1 -2 9 -3 17141. 16598. 6713. o
2395 1 1 9 -3 13322. 13852. 7383. <
2396 1 3 9 -3 127. 3966. 5980. <
2397 1 4 9 -3 8063. 9092. 5674. <
2398 1 5 9 -3 1395. 1526. 5004. <
2399 1 7 9 3 3634. 4271. 6346. <
2400 1 7 9 -3 3601. 3417. 4149. <
2401 1 8 9 3 3378. 1098. 5187. <
2402 1 8 9 -3 3449. 4638. 4210. <
2403 1 9 9 3 6012. 11350. 4757. o
2404 1 9 9 -3 5939. 10679. 4147. o
2405 1 11 9 3 16931. 15316. 4212. o
2406 1 11 9 -3 16605. 15560. 3540. o
2407 1 12 9 3 7076. 7017. 4088. <
2408 1 12 9 -3 7187. 7261. 3356. o
2409 1 13 9 3 36695. 37955. 4085. o
2410 1 13 9 -3 36104. 37955. 4023. o
2411 1 15 9 3 3720. 3661. 3539. <
2412 1 15 9 -3 3692. 8116. 3476. o
2413 1 16 9 3 28135. 27947. 3784. o
2414 1 16 9 -3 28112. 33012. 3772. o
2415 1 17 9 3 2015. 2685. 3478. <
2416 1 17 9 -3 1991. 10252. 3229. o
2417 2 34 3 3 13284. 6895. 5129. <
2417 1 -8 10 -3 13284. 6895. 5129. <
2418 2 32 4 3 3233. 3417. 7628. <
2418 1 -4 10 -3 3233. 3417. 7628. <
2419 1 5 10 -3 20446. 14889. 6899. o
2420 1 6 10 -3 41929. 26117. 6793. o
2421 1 7 10 -3 22365. 15194. 5681. o
2422 1 9 10 3 4722. 4638. 7078. <
2423 1 9 10 -3 4751. 8116. 4453. <
2424 1 10 10 3 7408. 6773. 6407. <
2425 1 10 10 -3 7382. 8604. 4210. o
2426 1 11 10 3 10896. 9153. 5249. <
2427 1 11 10 -3 10852. 8848. 4090. o
2428 2 0 0 -4 13276. 15926. 12203. <
2428 1 0 0 4 13276. 15926. 12203. <
2429 2 0 0 4 13322. 19282. 12446. <
2429 1 0 0 -4 13322. 19282. 12446. <
2430 1 2 0 4 12436. 17696. 7625. o
2431 1 2 0 -4 12456. 14645. 7627. <
2432 2 -2 1 -4 160261. 145717. 6980. o
2432 1 4 0 4 160261. 145717. 6980. o
2433 2 -2 1 4 149872. 148829. 6901. o
2433 1 4 0 -4 149872. 148829. 6901. o
2434 1 6 0 4 12778. 9275. 5128. <
2435 1 6 0 -4 12922. 9214. 5250. <
2436 2 -4 2 -4 3603770. 3308480. 25931. o
2436 1 8 0 4 3603770. 3308480. 25931. o
2437 2 -4 2 4 3604300. 3501910. 18334. o
2437 1 8 0 -4 3604300. 3501910. 18334. o
2438 1 10 0 4 24578. 15377. 6170. o
2439 1 10 0 -4 24769. 20930. 4155. o
2440 2 -6 3 -4 18714. 16842. 5371. o
2440 1 12 0 4 18714. 16842. 5371. o
2441 2 -6 3 4 19045. 18611. 2991. o
2441 1 12 0 -4 19045. 18611. 2991. o
2442 1 14 0 4 19029. 8543. 4767. <
2443 1 14 0 -4 19045. 15743. 2812. o
2444 2 -8 4 -4 1115790. 1033930. 10453. o
2444 1 16 0 4 1115790. 1033930. 10453. o
2445 2 -8 4 4 1118390. 1098920. 5792. o
2445 1 16 0 -4 1118390. 1098920. 5792. o
2446 1 18 0 4 19842. 14950. 3545. o
2447 1 18 0 -4 19402. 17391. 2262. o
2448 2 -10 5 -4 95307. 79327. 4235. o
2448 1 20 0 4 95307. 79327. 4235. o
2449 2 -10 5 4 94515. 91714. 2409. o
2449 1 20 0 -4 94515. 91714. 2409. o
2450 1 22 0 4 7016. 8116. 3661. o
2451 1 22 0 -4 7209. 8421. 2012. o
2452 2 -12 6 -4 51954. 50586. 4093. o
2452 1 24 0 4 51954. 50586. 4093. o
2453 2 -12 6 4 51820. 48816. 2275. o
2453 1 24 0 -4 51820. 48816. 2275. o
2454 1 26 0 4 20128. 19038. 3785. o
2455 1 26 0 -4 20052. 18367. 2201. o
2456 2 -14 7 -4 81748. 80059. 4036. o
2456 1 28 0 4 81748. 80059. 4036. o
2457 2 -14 7 4 81613. 79815. 2457. o
2457 1 28 0 -4 81613. 79815. 2457. o
2458 1 30 0 4 24231. 24652. 3783. o
2459 1 30 0 -4 24463. 24225. 2319. o
2460 2 -16 8 -4 148311. 146694. 4469. o
2460 1 32 0 4 148311. 146694. 4469. o
2461 2 -16 8 4 147371. 151270. 2376. o
2461 1 32 0 -4 147371. 151270. 2376. o
2462 1 34 0 4 8535. 5065. 3968. <
2463 1 34 0 -4 8665. 9641. 2196. o
2464 2 -18 9 -4 10316. 15072. 4206. o
2464 1 36 0 4 10316. 15072. 4206. o
2465 2 -18 9 4 10434. 10679. 2257. o
2465 1 36 0 -4 10434. 10679. 2257. o
2466 2 20 -8 -4 4890. 1953. 3906. <
2466 1 -34 1 4 4890. 1953. 3906. <
2467 2 20 -8 4 4862. 7261. 2195. o
2467 1 -34 1 -4 4862. 7261. 2195. o
2468 2 18 -7 -4 15846. 16232. 3783. o
2468 1 -30 1 4 15846. 16232. 3783. o
2469 2 18 -7 4 15825. 14523. 2138. o
2469 1 -30 1 -4 15825. 14523. 2138. o
2470 2 16 -6 -4 33003. 28375. 3550. o
2470 1 -26 1 4 33003. 28375. 3550. o
2471 2 16 -6 4 33731. 35209. 2007. o
2471 1 -26 1 -4 33731. 35209. 2007. o
2472 2 14 -5 -4 46352. 49427. 3773. o
2472 1 -22 1 4 46352. 49427. 3773. o
2473 2 14 -5 4 45250. 45582. 2073. o
2473 1 -22 1 -4 45250. 45582. 2073. o
2474 2 12 -4 -4 35213. 25140. 3986. o
2474 1 -18 1 4 35213. 25140. 3986. o
2475 2 12 -4 4 35404. 33195. 2145. o
2475 1 -18 1 -4 35404. 33195. 2145. o
2476 2 10 -3 -4 91765. 84270. 4978. o
2476 1 -14 1 4 91765. 84270. 4978. o
2477 2 10 -3 4 96892. 87870. 2824. o
2477 1 -14 1 -4 96892. 87870. 2824. o
2478 2 8 -2 -4 32088. 35087. 5914. o
2478 1 -10 1 4 32088. 35087. 5914. o
2479 2 8 -2 4 32310. 33256. 4086. o
2479 1 -10 1 -4 32310. 33256. 4086. o
2480 2 6 -1 -4 21428. 27093. 4752. o
2480 1 -6 1 4 21428. 27093. 4752. o
2481 2 6 -1 4 21018. 28252. 4749. o
2481 1 -6 1 -4 21018. 28252. 4749. o
2482 2 4 0 -4 58206. 59556. 6953. o
2482 1 -2 1 4 58206. 59556. 6953. o
2483 2 4 0 4 64249. 60471. 6843. o
2483 1 -2 1 -4 64249. 60471. 6843. o
2484 1 0 1 4 12987. 12692. 8055. <
2485 1 0 1 -4 13210. 11594. 9093. <
2486 1 1 1 4 6234. 8604. 5735. <
2487 1 1 1 -4 6432. 8360. 5857. <
2488 2 2 1 -4 34046. 40884. 7557. o
2488 1 2 1 4 34046. 40884. 7557. o
2489 2 2 1 4 37186. 38382. 7748. o
2489 1 2 1 -4 37186. 38382. 7748. o
2490 1 3 1 4 37794. 37833. 4637. o
2491 1 3 1 -4 37973. 36185. 4885. o
2492 1 4 1 4 2195. 1892. 4210. <
2493 1 4 1 -4 2110. 915. 4088. <
2494 1 5 1 4 31459. 29229. 3788. o
2495 1 5 1 -4 31468. 29778. 3726. o
2496 2 0 2 -4 67910. 50464. 5116. o
2496 1 6 1 4 67910. 50464. 5116. o
2497 2 0 2 4 67383. 63217. 5018. o
2497 1 6 1 -4 67383. 63217. 5018. o
2498 1 7 1 4 104160. 95131. 3486. o
2499 1 7 1 -4 104078. 100196. 3629. o
2500 1 8 1 4 4721. 4455. 2868. <
2501 1 8 1 -4 4699. 6651. 3050. o
2502 1 9 1 4 15352. 13730. 3663. o
2503 1 9 1 -4 15793. 14828. 3052. o
2504 2 -2 3 -4 29428. 30571. 6711. o
2504 1 10 1 4 29428. 30571. 6711. o
2505 2 -2 3 4 28707. 31426. 3411. o
2505 1 10 1 -4 28707. 31426. 3411. o
2506 1 11 1 4 23627. 18001. 3852. o
2507 1 11 1 -4 23226. 20625. 2264. o
2508 1 12 1 4 3358. 3295. 3722. <
2509 1 12 1 -4 3578. 2929. 2075. <
2510 1 13 1 4 6678. 4821. 3540. <
2511 1 13 1 -4 6489. 5614. 2014. o
2512 2 -4 4 -4 85189. 77435. 5158. o
2512 1 14 1 4 85189. 77435. 5158. o
2513 2 -4 4 4 89678. 84330. 3031. o
2513 1 14 1 -4 89678. 84330. 3031. o
2514 1 15 1 4 5823. 8299. 3233. o
2515 1 15 1 -4 5857. 7689. 1829. o
2516 1 16 1 4 9082. 8848. 2990. o
2517 1 16 1 -4 8964. 10252. 1768. o
2518 1 17 1 4 130027. 123628. 3360. o
2519 1 17 1 -4 129215. 130157. 1874. o
2520 2 -6 5 -4 15984. 18977. 4146. o
2520 1 18 1 4 15984. 18977. 4146. o
2521 2 -6 5 4 16021. 17208. 2316. o
2521 1 18 1 -4 16021. 17208. 2316. o
2522 1 19 1 4 62508. 56993. 2838. o
2523 1 19 1 -4 62584. 61875. 1655. o
2524 1 20 1 4 3924. 4393. 2441. <
2525 1 20 1 -4 4097. 3661. 1465. o
2526 1 21 1 4 17631. 16964. 2503. o
2527 1 21 1 -4 17555. 17818. 1464. o
2528 2 -8 6 -4 41433. 41555. 3966. o
2528 1 22 1 4 41433. 41555. 3966. o
2529 2 -8 6 4 40535. 42165. 2433. o
2529 1 22 1 -4 40535. 42165. 2433. o
2530 1 23 1 4 49752. 45888. 2521. o
2531 1 23 1 -4 49936. 49854. 1648. o
2532 1 24 1 4 11989. 11960. 2685. o
2533 1 24 1 -4 11773. 12692. 1585. o
2534 1 25 1 4 40392. 37955. 2633. o
2535 1 25 1 -4 40528. 43325. 1628. o
2536 2 -10 7 -4 27608. 25873. 4274. o
2536 1 26 1 4 27608. 25873. 4274. o
2537 2 -10 7 4 28492. 25568. 2510. o
2537 1 26 1 -4 28492. 25568. 2510. o
2538 1 27 1 4 482. 2258. 2624. <
2539 1 27 1 -4 488. 3234. 1524. o
2540 1 28 1 4 1906. 2441. 2624. <
2541 1 28 1 -4 1900. 6651. 1521. o
2542 1 29 1 4 49512. 49183. 2687. o
2543 1 29 1 -4 49655. 46498. 1672. o
2544 2 -12 8 -4 16788. 16781. 3539. o
2544 1 30 1 4 16788. 16781. 3539. o
2545 2 -12 8 4 16795. 10740. 2388. o
2545 1 30 1 -4 16795. 10740. 2388. o
2546 1 31 1 4 35250. 37406. 2799. o
2547 1 31 1 -4 35355. 37467. 1635. o
2548 1 32 1 4 629. -4088. 2745. <
2549 1 32 1 -4 653. 1831. 1586. <
2550 1 33 1 4 12172. 10984. 2808. o
2551 1 33 1 -4 12248. 15194. 1579. o
2552 2 -14 9 -4 5170. 10129. 4391. o
2552 1 34 1 4 5170. 10129. 4391. o
2553 2 -14 9 4 5086. 8970. 2315. o
2553 1 34 1 -4 5086. 8970. 2315. o
2554 1 35 1 4 10028. 11045. 2745. o
2555 1 35 1 -4 9990. 14706. 1638. o
2556 1 36 1 4 480. 7689. 2864. o
2557 1 36 1 -4 505. 4760. 1706. o
2558 2 22 -7 -4 39805. 39236. 3846. o
2558 1 -32 2 4 39805. 39236. 3846. o
2559 2 22 -7 4 39540. 37894. 2144. o
2559 1 -32 2 -4 39540. 37894. 2144. o
2560 2 20 -6 -4 153040. 145412. 4221. o
2560 1 -28 2 4 153040. 145412. 4221. o
2561 2 20 -6 4 153820. 144497. 2529. o
2561 1 -28 2 -4 153820. 144497. 2529. o
2562 2 18 -5 -4 3828. 2624. 3356. <
2562 1 -24 2 4 3828. 2624. 3356. <
2563 2 18 -5 4 3798. 3905. 2014. <
2563 1 -24 2 -4 3798. 3905. 2014. <
2564 2 16 -4 -4 720832. 673851. 7383. o
2564 1 -20 2 4 720832. 673851. 7383. o
2565 2 16 -4 4 716464. 688496. 4744. o
2565 1 -20 2 -4 716464. 688496. 4744. o
2566 2 14 -3 -4 91342. 85856. 4483. o
2566 1 -16 2 4 91342. 85856. 4483. o
2567 2 14 -3 4 90143. 88602. 2456. o
2567 1 -16 2 -4 90143. 88602. 2456. o
2568 2 12 -2 -4 5020. 10434. 4696. o
2568 1 -12 2 4 5020. 10434. 4696. o
2569 2 12 -2 4 5075. 10252. 2742. o
2569 1 -12 2 -4 5075. 10252. 2742. o
2570 2 10 -1 -4 67944. 69625. 4509. o
2570 1 -8 2 4 67944. 69625. 4509. o
2571 2 10 -1 4 65853. 70784. 4557. o
2571 1 -8 2 -4 65853. 70784. 4557. o
2572 2 8 0 -4 2716790. 2657450. 15238. o
2572 1 -4 2 4 2716790. 2657450. 15238. o
2573 2 8 0 4 2719870. 2758680. 9829. o
2573 1 -4 2 -4 2719870. 2758680. 9829. o
2574 2 6 1 -4 236961. 231695. 8763. o
2574 1 0 2 4 236961. 231695. 8763. o
2575 2 6 1 4 237099. 224068. 8273. o
2575 1 0 2 -4 237099. 224068. 8273. o
2576 1 1 2 4 14672. 12814. 5188. o
2577 1 1 2 -4 14852. 9031. 5495. <
2578 1 2 2 4 21556. 17574. 4703. o
2579 1 2 2 -4 21307. 15804. 4704. o
2580 1 3 2 4 384234. 358191. 5938. o
2581 1 3 2 -4 384178. 368382. 6121. o
2582 2 4 2 -4 2477290. 2596980. 7881. o
2582 1 4 2 4 2477290. 2596980. 7881. o
2583 2 4 2 4 2479920. 2708770. 53475. o
2583 1 4 2 -4 2479920. 2708770. 53475. o
2584 1 5 2 4 127621. 121065. 4141. o
2585 1 5 2 -4 127614. 122712. 4068. o
2586 1 6 2 4 2077. 5614. 3477. <
2587 1 6 2 -4 2126. 2441. 3417. <
2588 1 7 2 4 22933. 19832. 3300. o
2589 1 7 2 -4 23161. 20503. 3117. o
2590 2 2 3 -4 74590. 67428. 6671. o
2590 1 8 2 4 74590. 67428. 6671. o
2591 2 2 3 4 71966. 71821. 3418. o
2591 1 8 2 -4 71966. 71821. 3418. o
2592 1 9 2 4 8315. 10801. 3415. o
2593 1 9 2 -4 7760. 10190. 2499. o
2594 1 10 2 4 26667. 25262. 4274. o
2595 1 10 2 -4 27234. 25629. 2445. o
2596 1 11 2 4 10811. 11228. 4027. o
2597 1 11 2 -4 11177. 10190. 2198. o
2598 2 0 4 -4 41768. 35148. 5687. o
2598 1 12 2 4 41768. 35148. 5687. o
2599 2 0 4 4 41657. 41738. 3295. o
2599 1 12 2 -4 41657. 41738. 3295. o
2600 1 13 2 4 52721. 49427. 4038. o
2601 1 13 2 -4 53109. 52600. 1956. o
2602 1 14 2 4 33680. 37284. 3407. o
2603 1 14 2 -4 33554. 33561. 1831. o
2604 1 15 2 4 10864. 10252. 3235. o
2605 1 15 2 -4 10722. 12265. 1767. o
2606 2 -2 5 -4 89218. 83293. 5273. o
2606 1 16 2 4 89218. 83293. 5273. o
2607 2 -2 5 4 88253. 93972. 2943. o
2607 1 16 2 -4 88253. 93972. 2943. o
2608 1 17 2 4 14748. 15682. 3111. o
2609 1 17 2 -4 14328. 13791. 1649. o
2610 1 18 2 4 36884. 33988. 3303. o
2611 1 18 2 -4 37409. 38992. 1638. o
2612 1 19 2 4 44000. 46803. 3101. o
2613 1 19 2 -4 43332. 43874. 1705. o
2614 2 -4 6 -4 696166. 659694. 7840. o
2614 1 20 2 4 696166. 659694. 7840. o
2615 2 -4 6 4 691990. 706680. 3349. o
2615 1 20 2 -4 691990. 706680. 3349. o
2616 1 21 2 4 56861. 53637. 2945. o
2617 1 21 2 -4 56745. 56505. 1650. o
2618 1 22 2 4 14626. 15560. 2928. o
2619 1 22 2 -4 14414. 13486. 1650. o
2620 1 23 2 4 17295. 16414. 2930. o
2621 1 23 2 -4 17592. 18184. 1646. o
2622 2 -6 7 -4 3680. -732. 4455. <
2622 1 24 2 4 3680. -732. 4455. <
2623 2 -6 7 4 3691. 8299. 2315. o
2623 1 24 2 -4 3691. 8299. 2315. o
2624 1 25 2 4 1442. 3173. 2868. <
2625 1 25 2 -4 1493. 2441. 1586. <
2626 1 26 2 4 14966. 14645. 2807. o
2627 1 26 2 -4 15048. 13608. 1590. o
2628 1 27 2 4 11626. 12997. 2683. o
2629 1 27 2 -4 11420. 11899. 1586. o
2630 2 -8 8 -4 146006. 153406. 4944. o
2630 1 28 2 4 146006. 153406. 4944. o
2631 2 -8 8 4 146702. 154260. 2696. o
2631 1 28 2 -4 146702. 154260. 2696. o
2632 1 29 2 4 15526. 14645. 2808. o
2633 1 29 2 -4 15718. 17818. 1580. o
2634 1 30 2 4 10123. 12692. 2865. o
2635 1 30 2 -4 10039. 8848. 1588. o
2636 1 31 2 4 10891. 13058. 2865. o
2637 1 31 2 -4 10947. 10862. 1587. o
2638 2 -10 9 -4 39753. 46986. 4435. o
2638 1 32 2 4 39753. 46986. 4435. o
2639 2 -10 9 4 39474. 43691. 2606. o
2639 1 32 2 -4 39474. 43691. 2606. o
2640 1 33 2 4 541. 5553. 2805. <
2641 1 33 2 -4 554. 6224. 1582. o
2642 1 34 2 4 3449. 3112. 2868. <
2643 1 34 2 -4 3369. 3844. 1525. o
2644 1 35 2 4 2811. 4149. 2868. <
2645 1 35 2 -4 2802. 4516. 1646. o
2646 2 26 -7 -4 28003. 28252. 4271. o
2646 1 -34 3 4 28003. 28252. 4271. o
2647 2 26 -7 4 27568. 26422. 2322. o
2647 1 -34 3 -4 27568. 26422. 2322. o
2648 2 24 -6 -4 6442. 10557. 3536. o
2648 1 -30 3 4 6442. 10557. 3536. o
2649 2 24 -6 4 6437. 7872. 2012. o
2649 1 -30 3 -4 6437. 7872. 2012. o
2650 2 22 -5 -4 78830. 77313. 4157. o
2650 1 -26 3 4 78830. 77313. 4157. o
2651 2 22 -5 4 80555. 78961. 2333. o
2651 1 -26 3 -4 80555. 78961. 2333. o
2652 2 20 -4 -4 38118. 36918. 4030. o
2652 1 -22 3 4 38118. 36918. 4030. o
2653 2 20 -4 4 38180. 36673. 2143. o
2653 1 -22 3 -4 38180. 36673. 2143. o
2654 2 18 -3 -4 15410. 23188. 3772. o
2654 1 -18 3 4 15410. 23188. 3772. o
2655 2 18 -3 4 15294. 20564. 2123. o
2655 1 -18 3 -4 15294. 20564. 2123. o
2656 2 16 -2 -4 49840. 46193. 4587. o
2656 1 -14 3 4 49840. 46193. 4587. o
2657 2 16 -2 4 51609. 49122. 2454. o
2657 1 -14 3 -4 51609. 49122. 2454. o
2658 2 14 -1 -4 70432. 64438. 5329. o
2658 1 -10 3 4 70432. 64438. 5329. o
2659 2 14 -1 4 67229. 64621. 3613. o
2659 1 -10 3 -4 67229. 64621. 3613. o
2660 2 12 0 -4 8796. 12326. 4452. o
2660 1 -6 3 4 8796. 12326. 4452. o
2661 2 12 0 4 8930. 7933. 3906. o
2661 1 -6 3 -4 8930. 7933. 3906. o
2662 2 10 1 -4 51084. 53820. 5912. o
2662 1 -2 3 4 51084. 53820. 5912. o
2663 2 10 1 4 53374. 54186. 5551. o
2663 1 -2 3 -4 53374. 54186. 5551. o
2664 1 0 3 4 20372. 22090. 6589. o
2665 1 0 3 -4 20444. 20930. 5858. o
2666 1 1 3 4 3902. 3112. 5004. <
2667 1 1 3 -4 4221. 4577. 4393. <
2668 2 8 2 -4 60353. 66207. 7309. o
2668 1 2 3 4 60353. 66207. 7309. o
2669 2 8 2 4 63052. 62912. 7750. o
2669 1 2 3 -4 63052. 62912. 7750. o
2670 1 3 3 4 8283. 9702. 4026. o
2671 1 3 3 -4 8818. 6773. 4577. <
2672 1 4 3 4 9327. 8604. 3845. o
2673 1 4 3 -4 8940. 12204. 4513. o
2674 1 5 3 4 47092. 47657. 3781. o
2675 1 5 3 -4 47111. 52722. 3886. o
2676 2 6 3 -4 6056. 9702. 8054. <
2676 1 6 3 4 6056. 9702. 8054. <
2677 2 6 3 4 6225. 9031. 4453. o
2677 1 6 3 -4 6225. 9031. 4453. o
2678 1 7 3 4 393. 2441. 3844. <
2679 1 7 3 -4 342. 244. 2746. <
2680 1 8 3 4 20494. 21906. 3598. o
2681 1 8 3 -4 20121. 18916. 2809. o
2682 1 9 3 4 1047. 915. 5004. <
2683 1 9 3 -4 1271. 2136. 2441. <
2684 2 4 4 -4 56240. 54125. 6351. o
2684 1 10 3 4 56240. 54125. 6351. o
2685 2 4 4 4 53871. 55163. 3289. o
2685 1 10 3 -4 53871. 55163. 3289. o
2686 1 11 3 4 33423. 32463. 3846. o
2687 1 11 3 -4 34295. 33256. 2201. o
2688 1 12 3 4 59818. 55468. 3740. o
2689 1 12 3 -4 59358. 56505. 2035. o
2690 1 13 3 4 2521. 5614. 3355. <
2691 1 13 3 -4 2699. 3051. 1708. <
2692 2 2 5 -4 37076. 41555. 5544. o
2692 1 14 3 4 37076. 41555. 5544. o
2693 2 2 5 4 38556. 37040. 2995. o
2693 1 14 3 -4 38556. 37040. 2995. o
2694 1 15 3 4 3325. 2258. 3600. <
2695 1 15 3 -4 3650. 3844. 1708. o
2696 1 16 3 4 4952. 3783. 3234. <
2697 1 16 3 -4 5041. 4271. 1648. o
2698 1 17 3 4 11806. 10862. 3052. o
2699 1 17 3 -4 12061. 10801. 1589. o
2700 2 0 6 -4 49299. 39480. 4965. o
2700 1 18 3 4 49299. 39480. 4965. o
2701 2 0 6 4 49469. 44667. 2707. o
2701 1 18 3 -4 49469. 44667. 2707. o
2702 1 19 3 4 18362. 18611. 3051. o
2703 1 19 3 -4 18280. 17025. 1712. o
2704 1 20 3 4 30801. 35514. 2914. o
2705 1 20 3 -4 30818. 33378. 1757. o
2706 1 21 3 4 56255. 60960. 2903. o
2707 1 21 3 -4 56525. 59373. 1682. o
2708 2 -2 7 -4 30052. 35819. 4443. o
2708 1 22 3 4 30052. 35819. 4443. o
2709 2 -2 7 4 30028. 31243. 2559. o
2709 1 22 3 -4 30028. 31243. 2559. o
2710 1 23 3 4 36431. 39236. 3042. o
2711 1 23 3 -4 36147. 39297. 1628. o
2712 1 24 3 4 20592. 21357. 2989. o
2713 1 24 3 -4 20808. 18794. 1654. o
2714 1 25 3 4 22773. 21601. 2992. o
2715 1 25 3 -4 22852. 25934. 1635. o
2716 2 -4 8 -4 69867. 76886. 4792. o
2716 1 26 3 4 69867. 76886. 4792. o
2717 2 -4 8 4 71283. 78290. 2694. o
2717 1 26 3 -4 71283. 78290. 2694. o
2718 1 27 3 4 8582. 4638. 2809. <
2719 1 27 3 -4 8401. 4882. 1590. o
2720 1 28 3 4 10761. 11106. 2746. o
2721 1 28 3 -4 10792. 11411. 1585. o
2722 1 29 3 4 38114. 37955. 2930. o
2723 1 29 3 -4 37759. 36185. 1657. o
2724 2 -6 9 -4 6941. 6468. 4516. <
2724 1 30 3 4 6941. 6468. 4516. <
2725 2 -6 9 4 6947. 7506. 2440. o
2725 1 30 3 -4 6947. 7506. 2440. o
2726 1 31 3 4 30725. 29961. 3114. o
2727 1 31 3 -4 30655. 30327. 1710. o
2728 1 32 3 4 294. 3539. 2928. <
2729 1 32 3 -4 311. 2929. 1647. <
2730 1 33 3 4 7013. 10740. 2987. o
2731 1 33 3 -4 6884. 7811. 1646. o
2732 2 -8 10 -4 26272. 29595. 4876. o
2732 1 34 3 4 26272. 29595. 4876. o
2733 2 -8 10 4 25900. 28802. 2799. o
2733 1 34 3 -4 25900. 28802. 2799. o
2734 2 28 -6 -4 46419. 38931. 4291. o
2734 1 -32 4 4 46419. 38931. 4291. o
2735 2 28 -6 4 45631. 45338. 2930. o
2735 1 -32 4 -4 45631. 45338. 2930. o
2736 2 26 -5 -4 42350. 44118. 3839. o
2736 1 -28 4 4 42350. 44118. 3839. o
2737 2 26 -5 4 42495. 41860. 2200. o
2737 1 -28 4 -4 42495. 41860. 2200. o
2738 2 24 -4 -4 4406. 1648. 4211. <
2738 1 -24 4 4 4406. 1648. 4211. <
2739 2 24 -4 4 4488. 4149. 2380. <
2739 1 -24 4 -4 4488. 4149. 2380. <
2740 2 22 -3 -4 46700. 47474. 4697. o
2740 1 -20 4 4 46700. 47474. 4697. o
2741 2 22 -3 4 46454. 46559. 2562. o
2741 1 -20 4 -4 46454. 46559. 2562. o
2742 2 20 -2 -4 331726. 313890. 5937. o
2742 1 -16 4 4 331726. 313890. 5937. o
2743 2 20 -2 4 334083. 343607. 2888. o
2743 1 -16 4 -4 334083. 343607. 2888. o
2744 2 18 -1 -4 108415. 110752. 5174. o
2744 1 -12 4 4 108415. 110752. 5174. o
2745 2 18 -1 4 107936. 113987. 2742. o
2745 1 -12 4 -4 107936. 113987. 2742. o
2746 2 16 0 -4 846168. 810842. 10301. o
2746 1 -8 4 4 846168. 810842. 10301. o
2747 2 16 0 4 843608. 888704. 4476. o
2747 1 -8 4 -4 843608. 888704. 4476. o
2748 2 14 1 -4 36838. 37650. 4453. o
2748 1 -4 4 4 36838. 37650. 4453. o
2749 2 14 1 4 36599. 41311. 4688. o
2749 1 -4 4 -4 36599. 41311. 4688. o
2750 2 12 2 -4 174860. 177814. 7915. o
2750 1 0 4 4 174860. 177814. 7915. o
2751 2 12 2 4 175681. 160362. 6872. o
2751 1 0 4 -4 175681. 160362. 6872. o
2752 1 1 4 4 32308. 34110. 4817. o
2753 1 1 4 -4 32302. 30205. 4397. o
2754 1 2 4 4 116429. 117038. 4572. o
2755 1 2 4 -4 117798. 112583. 4853. o
2756 1 3 4 4 14822. 17513. 3719. o
2757 1 3 4 -4 14350. 17757. 4207. o
2758 2 10 3 -4 29217. 33256. 8112. o
2758 1 4 4 4 29217. 33256. 8112. o
2759 2 10 3 4 30445. 36856. 8475. o
2759 1 4 4 -4 30445. 36856. 8475. o
2760 1 5 4 4 6040. 6590. 3966. <
2761 1 5 4 -4 5638. 5553. 4577. <
2762 1 6 4 4 66842. 56261. 4129. o
2763 1 6 4 -4 66704. 68892. 4262. o
2764 1 7 4 4 197575. 187455. 4272. o
2765 1 7 4 -4 196080. 198439. 3812. o
2766 2 8 4 -4 772722. 858621. 11372. o
2766 1 8 4 4 772722. 858621. 11372. o
2767 2 8 4 4 771074. 827806. 5644. o
2767 1 8 4 -4 771074. 827806. 5644. o
2768 1 9 4 4 346033. 349038. 5502. o
2769 1 9 4 -4 345945. 354713. 2902. o
2770 1 10 4 4 14909. 17452. 4452. o
2771 1 10 4 -4 14857. 16109. 2194. o
2772 1 11 4 4 40354. 38321. 3850. o
2773 1 11 4 -4 40408. 38870. 2204. o
2774 2 6 5 -4 109159. 112522. 6147. o
2774 1 12 4 4 109159. 112522. 6147. o
2775 2 6 5 4 108646. 110325. 3403. o
2775 1 12 4 -4 108646. 110325. 3403. o
2776 1 13 4 4 4756. 5736. 3661. <
2777 1 13 4 -4 4651. 6346. 1890. o
2778 1 14 4 4 57816. 56993. 3787. o
2779 1 14 4 -4 57672. 56322. 2024. o
2780 1 15 4 4 135247. 127655. 3972. o
2781 1 15 4 -4 134572. 132293. 2113. o
2782 2 4 6 -4 202791. 198561. 5836. o
2782 1 16 4 4 202791. 198561. 5836. o
2783 2 4 6 4 204154. 199965. 3423. o
2783 1 16 4 -4 204154. 199965. 3423. o
2784 1 17 4 4 119473. 114475. 3764. o
2785 1 17 4 -4 119519. 120211. 2003. o
2786 1 18 4 4 21865. 24957. 3228. o
2787 1 18 4 -4 21822. 23981. 1762. o
2788 1 19 4 4 20838. 23310. 3046. o
2789 1 19 4 -4 20658. 22883. 1823. o
2790 2 2 7 -4 40936. 37406. 4767. o
2790 1 20 4 4 40936. 37406. 4767. o
2791 2 2 7 4 40658. 41616. 2436. o
2791 1 20 4 -4 40658. 41616. 2436. o
2792 1 21 4 4 1880. 3722. 3051. <
2793 1 21 4 -4 2036. 2807. 1586. <
2794 1 22 4 4 25086. 23737. 3359. o
2795 1 22 4 -4 25142. 27581. 1760. o
2796 1 23 4 4 4385. 1526. 2930. <
2797 1 23 4 -4 4294. 3783. 1648. o
2798 2 0 8 -4 18616. 17269. 5371. o
2798 1 24 4 4 18616. 17269. 5371. o
2799 2 0 8 4 18556. 11167. 2513. o
2799 1 24 4 -4 18556. 11167. 2513. o
2800 1 25 4 4 29334. 31120. 3107. o
2801 1 25 4 -4 29329. 29168. 1770. o
2802 1 26 4 4 8977. 10068. 2928. o
2803 1 26 4 -4 8939. 6834. 1650. o
2804 1 27 4 4 5703. 3112. 2930. <
2805 1 27 4 -4 5532. 7689. 1584. o
2806 2 -2 9 -4 39364. 46681. 5293. o
2806 1 28 4 4 39364. 46681. 5293. o
2807 2 -2 9 4 39507. 39785. 2745. o
2807 1 28 4 -4 39507. 39785. 2745. o
2808 1 29 4 4 15406. 12082. 3177. o
2809 1 29 4 -4 15178. 16048. 1645. o
2810 1 30 4 4 10372. 5126. 3054. <
2811 1 30 4 -4 10378. 11350. 1585. o
2812 1 31 4 4 10301. 12509. 3232. o
2813 1 31 4 -4 10114. 10984. 1585. o
2814 2 -4 10 -4 43692. 39419. 4648. o
2814 1 32 4 4 43692. 39419. 4648. o
2815 2 -4 10 4 42978. 39175. 2700. o
2815 1 32 4 -4 42978. 39175. 2700. o
2816 1 33 4 4 20002. 18306. 3115. o
2817 1 33 4 -4 19910. 18123. 1957. o
2818 2 30 -5 -4 3349. 11350. 4145. o
2818 1 -30 5 4 3349. 11350. 4145. o
2819 2 30 -5 4 3293. 4149. 2868. <
2819 1 -30 5 -4 3293. 4149. 2868. <
2820 2 28 -4 -4 23291. 20991. 4397. o
2820 1 -26 5 4 23291. 20991. 4397. o
2821 2 28 -4 4 23237. 22761. 2442. o
2821 1 -26 5 -4 23237. 22761. 2442. o
2822 2 26 -3 -4 75938. 75544. 4517. o
2822 1 -22 5 4 75938. 75544. 4517. o
2823 2 26 -3 4 74559. 76703. 2607. o
2823 1 -22 5 -4 74559. 76703. 2607. o
2824 2 24 -2 -4 6766. 11960. 4635. o
2824 1 -18 5 4 6766. 11960. 4635. o
2825 2 24 -2 4 6898. 4088. 2503. <
2825 1 -18 5 -4 6898. 4088. 2503. <
2826 2 22 -1 -4 41226. 46193. 4502. o
2826 1 -14 5 4 41226. 46193. 4502. o
2827 2 22 -1 4 42317. 43203. 2437. o
2827 1 -14 5 -4 42317. 43203. 2437. o
2828 2 20 0 -4 43884. 41067. 4949. o
2828 1 -10 5 4 43884. 41067. 4949. o
2829 2 20 0 4 44468. 49976. 2658. o
2829 1 -10 5 -4 44468. 49976. 2658. o
2830 2 18 1 -4 18422. 22639. 5488. o
2830 1 -6 5 4 18422. 22639. 5488. o
2831 2 18 1 4 18649. 24469. 3774. o
2831 1 -6 5 -4 18649. 24469. 3774. o
2832 2 16 2 -4 40882. 40030. 5128. o
2832 1 -2 5 4 40882. 40030. 5128. o
2833 2 16 2 4 41556. 46010. 6827. o
2833 1 -2 5 -4 41556. 46010. 6827. o
2834 1 0 5 4 34308. 34660. 6651. o
2835 1 0 5 -4 34797. 25140. 7515. o
2836 1 1 5 4 43096. 41189. 4094. o
2837 1 1 5 -4 43482. 35575. 5628. o
2838 2 14 3 -4 30278. 38016. 5968. o
2838 1 2 5 4 30278. 38016. 5968. o
2839 2 14 3 4 30429. 35087. 7866. o
2839 1 2 5 -4 30429. 35087. 7866. o
2840 1 3 5 4 1830. 3966. 3478. <
2841 1 3 5 -4 1824. 3844. 3722. <
2842 1 4 5 4 11544. 13242. 3415. o
2843 1 4 5 -4 11200. 15682. 3596. o
2844 1 5 5 4 2863. 1831. 3234. <
2845 1 5 5 -4 2795. 1403. 3234. <
2846 2 12 4 -4 38269. 42531. 7988. o
2846 1 6 5 4 38269. 42531. 7988. o
2847 2 12 4 4 38614. 33561. 7024. o
2847 1 6 5 -4 38614. 33561. 7024. o
2848 1 7 5 4 21030. 13180. 4462. o
2849 1 7 5 -4 20687. 21052. 2989. o
2850 1 8 5 4 69221. 64621. 4777. o
2851 1 8 5 -4 69677. 74933. 2708. o
2852 1 9 5 4 21673. 20625. 4944. o
2853 1 9 5 -4 22310. 22517. 3173. o
2854 2 10 5 -4 30302. 34599. 7500. o
2854 1 10 5 4 30302. 34599. 7500. o
2855 2 10 5 4 30644. 31853. 4452. o
2855 1 10 5 -4 30644. 31853. 4452. o
2856 1 11 5 4 48166. 46193. 4155. o
2857 1 11 5 -4 47254. 48633. 2372. o
2858 1 12 5 4 24097. 24896. 4148. o
2859 1 12 5 -4 24436. 23249. 2139. o
2860 1 13 5 4 58872. 61631. 3710. o
2861 1 13 5 -4 59483. 61814. 2179. o
2862 2 8 6 -4 35488. 39846. 5362. o
2862 1 14 5 4 35488. 39846. 5362. o
2863 2 8 6 4 36396. 38992. 3165. o
2863 1 14 5 -4 36396. 38992. 3165. o
2864 1 15 5 4 19968. 18123. 3786. o
2865 1 15 5 -4 19266. 18306. 1894. o
2866 1 16 5 4 44003. 42714. 3665. o
2867 1 16 5 -4 43791. 42714. 2020. o
2868 1 17 5 4 8401. 10007. 3538. o
2869 1 17 5 -4 8140. 8116. 1831. o
2870 2 6 7 -4 7461. 12570. 5855. o
2870 1 18 5 4 7461. 12570. 5855. o
2871 2 6 7 4 7605. 5736. 2747. o
2871 1 18 5 -4 7605. 5736. 2747. o
2872 1 19 5 4 8965. 7445. 3113. o
2873 1 19 5 -4 8882. 7200. 1893. o
2874 1 20 5 4 1790. 2563. 3478. <
2875 1 20 5 -4 1825. 854. 1831. <
2876 1 21 5 4 2345. 5858. 3111. <
2877 1 21 5 -4 2227. 5187. 1707. o
2878 2 4 8 -4 65564. 55468. 5703. o
2878 1 22 5 4 65564. 55468. 5703. o
2879 2 4 8 4 64425. 67001. 2729. o
2879 1 22 5 -4 64425. 67001. 2729. o
2880 1 23 5 4 7868. 15560. 3287. o
2881 1 23 5 -4 8178. 9397. 1707. o
2882 1 24 5 4 37187. 37894. 3293. o
2883 1 24 5 -4 37299. 39175. 1820. o
2884 1 25 5 4 1193. 1098. 3356. <
2885 1 25 5 -4 1097. 2136. 1708. <
2886 2 2 9 -4 15070. 13180. 4822. o
2886 1 26 5 4 15070. 13180. 4822. o
2887 2 2 9 4 15048. 18489. 2618. o
2887 1 26 5 -4 15048. 18489. 2618. o
2888 1 27 5 4 21801. 24286. 3657. o
2889 1 27 5 -4 22099. 19649. 1899. o
2890 1 28 5 4 3334. 10801. 3107. o
2891 1 28 5 -4 3306. 4882. 2074. o
2892 1 29 5 4 2107. 5431. 2928. <
2893 1 29 5 -4 2009. 5675. 1950. o
2894 2 0 10 -4 3775. 7322. 4636. <
2894 1 30 5 4 3775. 7322. 4636. <
2895 2 0 10 4 3713. 6651. 2561. o
2895 1 30 5 -4 3713. 6651. 2561. o
2896 1 31 5 4 236. 1464. 3417. <
2897 1 31 5 -4 239. 5614. 1889. o
2898 1 32 5 4 11702. 10434. 2686. o
2899 1 32 5 -4 11779. 11838. 2014. o
2900 2 32 -4 -4 23888. 16781. 3428. o
2900 1 -28 6 4 23888. 16781. 3428. o
2901 2 32 -4 4 24345. 20747. 2936. o
2901 1 -28 6 -4 24345. 20747. 2936. o
2902 2 30 -3 -4 5994. 9336. 4453. o
2902 1 -24 6 4 5994. 9336. 4453. o
2903 2 30 -3 4 5921. 4638. 2930. <
2903 1 -24 6 -4 5921. 4638. 2930. <
2904 2 28 -2 -4 80487. 73957. 4605. o
2904 1 -20 6 4 80487. 73957. 4605. o
2905 2 28 -2 4 79689. 80181. 3353. o
2905 1 -20 6 -4 79689. 80181. 3353. o
2906 2 26 -1 -4 55612. 52478. 4830. o
2906 1 -16 6 4 55612. 52478. 4830. o
2907 2 26 -1 4 56142. 61387. 3085. o
2907 1 -16 6 -4 56142. 61387. 3085. o
2908 2 24 0 -4 68682. 65475. 5015. o
2908 1 -12 6 4 68682. 65475. 5015. o
2909 2 24 0 4 68827. 75849. 3315. o
2909 1 -12 6 -4 68827. 75849. 3315. o
2910 2 22 1 -4 19326. 19222. 3295. o
2910 1 -8 6 4 19326. 19222. 3295. o
2911 2 22 1 4 19471. 20015. 3233. o
2911 1 -8 6 -4 19471. 20015. 3233. o
2912 2 20 2 -4 217032. 201063. 6006. o
2912 1 -4 6 4 217032. 201063. 6006. o
2913 2 20 2 4 218480. 216745. 7032. o
2913 1 -4 6 -4 218480. 216745. 7032. o
2914 2 18 3 -4 173605. 176167. 6572. o
2914 1 0 6 4 173605. 176167. 6572. o
2915 2 18 3 4 172177. 112888. 8193. o
2915 1 0 6 -4 172177. 112888. 8193. o
2916 1 1 6 4 17711. 17147. 3662. o
2917 1 1 6 -4 17687. 12143. 5313. o
2918 1 2 6 4 58002. 55956. 3913. o
2919 1 2 6 -4 57243. 57481. 5308. o
2920 1 3 6 4 193794. 201307. 3927. o
2921 1 3 6 -4 193351. 194656. 5908. o
2922 2 16 4 -4 113161. 142300. 7180. o
2922 1 4 6 4 113161. 142300. 7180. o
2923 2 16 4 4 113427. 140653. 8307. o
2923 1 4 6 -4 113427. 140653. 8307. o
2924 1 5 6 4 207872. 210094. 4119. o
2925 1 5 6 -4 208350. 206616. 4112. o
2926 1 6 6 4 70106. 69686. 3480. o
2927 1 6 6 -4 69509. 69808. 3171. o
2928 1 7 6 4 14122. 14279. 3173. o
2929 1 7 6 -4 13758. 17025. 2985. o
2930 2 14 5 -4 18485. 18977. 6590. o
2930 1 8 6 4 18485. 18977. 6590. o
2931 2 14 5 4 18244. 17635. 5736. o
2931 1 8 6 -4 18244. 17635. 5736. o
2932 1 9 6 4 26278. 25995. 4638. o
2933 1 9 6 -4 26725. 26178. 2808. o
2934 1 10 6 4 36318. 28985. 4590. o
2935 1 10 6 -4 36701. 33928. 2816. o
2936 1 11 6 4 1766. 4577. 4820. <
2937 1 11 6 -4 1758. 1587. 2868. <
2938 2 12 6 -4 73402. 67855. 8250. o
2938 1 12 6 4 73402. 67855. 8250. o
2939 2 12 6 4 73498. 79327. 7673. o
2939 1 12 6 -4 73498. 79327. 7673. o
2940 1 13 6 4 30230. 32341. 4512. o
2941 1 13 6 -4 30547. 33805. 3164. o
2942 1 14 6 4 45565. 49915. 5054. o
2943 1 14 6 -4 45713. 47352. 2922. o
2944 1 15 6 4 2447. 3173. 4332. <
2945 1 15 6 -4 2305. 3600. 2623. <
2946 2 10 7 -4 56430. 61509. 7250. o
2946 1 16 6 4 56430. 61509. 7250. o
2947 2 10 7 4 57150. 59800. 3956. o
2947 1 16 6 -4 57150. 59800. 3956. o
2948 1 17 6 4 24149. 24164. 4271. o
2949 1 17 6 -4 23417. 27398. 2491. o
2950 1 18 6 4 34367. 34660. 4027. o
2951 1 18 6 -4 33954. 37162. 2428. o
2952 1 19 6 4 32044. 32707. 3965. o
2953 1 19 6 -4 31357. 31609. 2196. o
2954 2 8 8 -4 53501. 60166. 6024. o
2954 1 20 6 4 53501. 60166. 6024. o
2955 2 8 8 4 52897. 53515. 3109. o
2955 1 20 6 -4 52897. 53515. 3109. o
2956 1 21 6 4 52863. 55285. 3590. o
2957 1 21 6 -4 52676. 53759. 2251. o
2958 1 22 6 4 6665. 8299. 3111. o
2959 1 22 6 -4 6690. 7872. 2013. o
2960 1 23 6 4 7321. 7872. 3539. o
2961 1 23 6 -4 7485. 11533. 2008. o
2962 2 6 9 -4 6361. 10923. 5673. <
2962 1 24 6 4 6361. 10923. 5673. <
2963 2 6 9 4 6311. 8055. 2745. o
2963 1 24 6 -4 6311. 8055. 2745. o
2964 1 25 6 4 5305. 6773. 2867. o
2965 1 25 6 -4 5275. 5980. 2013. o
2966 1 26 6 4 2648. 6224. 2988. o
2967 1 26 6 -4 2659. 8726. 2069. o
2968 1 27 6 4 12435. 10862. 2931. o
2969 1 27 6 -4 12393. 13424. 2012. o
2970 2 4 10 -4 15318. 14523. 6103. o
2970 1 28 6 4 15318. 14523. 6103. o
2971 2 4 10 4 15630. 17269. 2926. o
2971 1 28 6 -4 15630. 17269. 2926. o
2972 1 29 6 4 50337. 41006. 3328. o
2973 1 29 6 -4 50845. 46803. 2462. o
2974 2 34 -3 -4 20819. 17452. 3117. o
2974 1 -26 7 4 20819. 17452. 3117. o
2975 2 34 -3 4 21185. 20808. 3235. o
2975 1 -26 7 -4 21185. 20808. 3235. o
2976 2 32 -2 -4 9728. 10984. 3050. o
2976 1 -22 7 4 9728. 10984. 3050. o
2977 2 32 -2 4 9714. 5553. 3115. <
2977 1 -22 7 -4 9714. 5553. 3115. <
2978 2 30 -1 -4 9059. 8482. 3051. o
2978 1 -18 7 4 9059. 8482. 3051. o
2979 2 30 -1 4 9121. 6773. 3175. o
2979 1 -18 7 -4 9121. 6773. 3175. o
2980 2 28 0 -4 28470. 21540. 3126. o
2980 1 -14 7 4 28470. 21540. 3126. o
2981 2 28 0 4 28488. 27764. 3114. o
2981 1 -14 7 -4 28488. 27764. 3114. o
2982 2 26 1 -4 31239. 28497. 3667. o
2982 1 -10 7 4 31239. 28497. 3667. o
2983 2 26 1 4 31045. 33378. 3350. o
2983 1 -10 7 -4 31045. 33378. 3350. o
2984 2 24 2 -4 6222. 6041. 4027. <
2984 1 -6 7 4 6222. 6041. 4027. <
2985 2 24 2 4 6167. 6834. 3783. <
2985 1 -6 7 -4 6167. 6834. 3783. <
2986 2 22 3 4 8878. 9092. 4698. <
2986 1 -2 7 -4 8878. 9092. 4698. <
2987 1 0 7 -4 19526. 14035. 8302. <
2988 1 1 7 4 23282. 25446. 6100. o
2989 1 1 7 -4 23120. 19466. 6105. o
2990 2 20 4 -4 10995. 10496. 6041. <
2990 1 2 7 4 10995. 10496. 6041. <
2991 2 20 4 4 11205. 11838. 8360. <
2991 1 2 7 -4 11205. 11838. 8360. <
2992 1 3 7 4 12093. 15987. 5184. o
2993 1 3 7 -4 12040. 15865. 4024. o
2994 1 4 7 4 13703. 17147. 4268. o
2995 1 4 7 -4 13766. 15621. 3903. o
2996 1 5 7 4 3741. 4393. 3783. <
2997 1 5 7 -4 3823. 3051. 3600. <
2998 2 18 5 -4 7061. 7933. 7200. <
2998 1 6 7 4 7061. 7933. 7200. <
2999 2 18 5 4 6977. 7750. 6956. <
2999 1 6 7 -4 6977. 7750. 6956. <
3000 1 7 7 4 1825. 3844. 3539. <
3001 1 7 7 -4 1845. 671. 3295. <
3002 1 8 7 4 112. 2197. 3417. <
3003 1 8 7 -4 96. 488. 3112. <
3004 1 9 7 4 5505. 7078. 3477. o
3005 1 9 7 -4 5456. 6407. 3051. o
3006 2 16 6 -4 37414. 38504. 7687. o
3006 1 10 7 4 37414. 38504. 7687. o
3007 2 16 6 4 37255. 26605. 6664. o
3007 1 10 7 -4 37255. 26605. 6664. o
3008 1 11 7 4 31271. 34782. 3530. o
3009 1 11 7 -4 31621. 33805. 2922. o
3010 1 12 7 4 14247. 16048. 3476. o
3011 1 12 7 -4 14823. 17147. 2681. o
3012 1 13 7 4 49708. 49976. 3721. o
3013 1 13 7 -4 49085. 52600. 2912. o
3014 2 14 7 -4 14101. 6163. 8911. <
3014 1 14 7 4 14101. 6163. 8911. <
3015 2 14 7 4 14092. 11289. 5311. o
3015 1 14 7 -4 14092. 11289. 5311. o
3016 1 15 7 4 7674. 7689. 3600. o
3017 1 15 7 -4 7767. 7506. 2929. o
3018 1 16 7 4 258. 244. 3234. <
3019 1 16 7 -4 250. -488. 2624. <
3020 1 17 7 4 1410. 2014. 3173. <
3021 1 17 7 -4 1365. 1526. 3356. <
3022 2 12 8 -4 8190. 6346. 7384. <
3022 1 18 7 4 8190. 6346. 7384. <
3023 2 12 8 4 8265. 9397. 4576. o
3023 1 18 7 -4 8265. 9397. 4576. o
3024 1 19 7 4 4810. 7933. 3171. o
3025 1 19 7 -4 4837. 5980. 2806. o
3026 1 20 7 4 37718. 34233. 3427. o
3027 1 20 7 -4 37600. 38687. 2681. o
3028 1 21 7 4 11764. 14645. 3170. o
3029 1 21 7 -4 11865. 12265. 2440. o
3030 2 10 9 -4 1572. 6712. 6894. <
3030 1 22 7 4 1572. 6712. 6894. <
3031 2 10 9 4 1499. 3234. 3478. <
3031 1 22 7 -4 1499. 3234. 3478. <
3032 1 23 7 4 27989. 29229. 3170. o
3033 1 23 7 -4 27739. 26422. 2445. o
3034 1 24 7 4 17912. 18245. 3050. o
3035 1 24 7 -4 17921. 18367. 2379. o
3036 1 25 7 4 20868. 17940. 2995. o
3037 1 25 7 -4 21108. 20198. 2260. o
3038 2 8 10 -4 17350. 16659. 6713. o
3038 1 26 7 4 17350. 16659. 6713. o
3039 2 8 10 4 17638. 15377. 2993. o
3039 1 26 7 -4 17638. 15377. 2993. o
3040 1 27 7 4 5934. 6285. 3051. o
3041 1 27 7 -4 5721. 7384. 2195. o
3042 2 34 -1 -4 12540. 13424. 3294. o
3042 1 -20 8 4 12540. 13424. 3294. o
3043 2 34 -1 4 12391. 13913. 3355. o
3043 1 -20 8 -4 12391. 13913. 3355. o
3044 2 32 0 -4 31745. 29351. 3484. o
3044 1 -16 8 4 31745. 29351. 3484. o
3045 2 32 0 4 31920. 32463. 3721. o
3045 1 -16 8 -4 31920. 32463. 3721. o
3046 2 30 1 -4 13531. 17452. 3596. o
3046 1 -12 8 4 13531. 17452. 3596. o
3047 2 30 1 4 13466. 15194. 3232. o
3047 1 -12 8 -4 13466. 15194. 3232. o
3048 2 28 2 -4 47290. 44118. 4280. o
3048 1 -8 8 4 47290. 44118. 4280. o
3049 2 28 2 4 46886. 40823. 3680. o
3049 1 -8 8 -4 46886. 40823. 3680. o
3050 2 26 3 4 32709. 25202. 4284. o
3050 1 -4 8 -4 32709. 25202. 4284. o
3051 2 24 4 4 70155. 66634. 5869. o
3051 1 0 8 -4 70155. 66634. 5869. o
3052 1 1 8 -4 917. 1648. 3600. <
3053 1 2 8 -4 11194. 12692. 3660. o
3054 1 3 8 -4 18010. 18855. 3477. o
3055 2 22 5 4 31834. 26727. 5621. o
3055 1 4 8 -4 31834. 26727. 5621. o
3056 1 5 8 4 44518. 47962. 6584. o
3057 1 5 8 -4 43827. 43935. 4088. o
3058 1 6 8 4 45046. 48328. 5545. o
3059 1 6 8 -4 44241. 44850. 3965. o
3060 1 7 8 4 72554. 80059. 4481. o
3061 1 7 8 -4 72787. 74933. 4200. o
3062 2 20 6 -4 27384. 26239. 8849. o
3062 1 8 8 4 27384. 26239. 8849. o
3063 2 20 6 4 27260. 17208. 8488. o
3063 1 8 8 -4 27260. 17208. 8488. o
3064 1 9 8 4 43396. 45399. 4144. o
3065 1 9 8 -4 43440. 44362. 3719. o
3066 1 10 8 4 39380. 37955. 4153. o
3067 1 10 8 -4 39434. 41067. 3534. o
3068 1 11 8 4 1878. 4943. 3721. <
3069 1 11 8 -4 1794. 2563. 3112. <
3070 2 18 7 -4 11728. 13180. 8908. <
3070 1 12 8 4 11728. 13180. 8908. <
3071 2 18 7 4 11648. 11167. 6835. <
3071 1 12 8 -4 11648. 11167. 6835. <
3072 1 13 8 4 5344. 6346. 3844. <
3073 1 13 8 -4 5314. 3356. 3052. <
3074 1 14 8 4 1622. 2563. 3783. <
3075 1 14 8 -4 1598. 2685. 2990. <
3076 1 15 8 4 29067. 31243. 3840. o
3077 1 15 8 -4 28993. 26971. 2995. o
3078 2 16 8 -4 468. 4088. 9397. <
3078 1 16 8 4 468. 4088. 9397. <
3079 2 16 8 4 446. 3966. 6224. <
3079 1 16 8 -4 446. 3966. 6224. <
3080 1 17 8 4 68464. 67245. 4155. o
3081 1 17 8 -4 69236. 72737. 3275. o
3082 1 18 8 4 28348. 25629. 3788. o
3083 1 18 8 -4 28088. 23371. 2940. o
3084 1 19 8 4 1819. 2014. 3844. <
3085 1 19 8 -4 1711. 7811. 2804. o
3086 2 14 9 -4 14886. 13669. 9093. <
3086 1 20 8 4 14886. 13669. 9093. <
3087 2 14 9 4 14703. 11045. 5799. <
3087 1 20 8 -4 14703. 11045. 5799. <
3088 1 21 8 4 18637. 16414. 3542. o
3089 1 21 8 -4 19070. 22639. 2861. o
3090 1 22 8 4 395. 9092. 3474. o
3091 1 22 8 -4 406. 3844. 3661. <
3092 1 23 8 4 6120. 6529. 3478. <
3093 1 23 8 -4 6022. 6651. 3417. <
3094 2 36 0 -4 4792. 10496. 3719. o
3094 1 -18 9 4 4792. 10496. 3719. o
3095 2 36 0 4 4755. 13242. 3777. o
3095 1 -18 9 -4 4755. 13242. 3777. o
3096 2 34 1 -4 13528. 14950. 3599. o
3096 1 -14 9 4 13528. 14950. 3599. o
3097 2 34 1 4 13640. 14706. 3416. o
3097 1 -14 9 -4 13640. 14706. 3416. o
3098 2 32 2 -4 9394. 8604. 4577. <
3098 1 -10 9 4 9394. 8604. 4577. <
3099 2 32 2 4 9444. 7811. 3601. o
3099 1 -10 9 -4 9444. 7811. 3601. o
3100 2 30 3 -4 8316. 8604. 10801. <
3100 1 -6 9 4 8316. 8604. 10801. <
3101 2 30 3 4 8195. 8238. 4271. <
3101 1 -6 9 -4 8195. 8238. 4271. <
3102 2 28 4 4 9273. 11716. 5857. <
3102 1 -2 9 -4 9273. 11716. 5857. <
3103 1 0 9 -4 39678. 39053. 6835. o
3104 1 1 9 -4 42341. 39602. 4949. o
3105 1 3 9 -4 1295. 1464. 3539. <
3106 1 4 9 -4 12445. 12570. 5431. o
3107 1 5 9 -4 5445. 3173. 4760. <
3108 1 7 9 4 3638. 4393. 6529. <
3109 1 7 9 -4 3705. 4821. 4454. <
3110 1 8 9 4 6326. 7384. 5308. <
3111 1 8 9 -4 6406. 11045. 3963. o
3112 1 9 9 4 10684. 8177. 4761. <
3113 1 9 9 -4 10568. 13242. 3964. o
3114 1 11 9 4 20146. 18611. 4334. o
3115 1 11 9 -4 19868. 19100. 3662. o
3116 1 12 9 4 28639. 24408. 4278. o
3117 1 12 9 -4 29075. 26666. 3849. o
3118 1 13 9 4 5426. 5858. 3722. <
3119 1 13 9 -4 5610. 7078. 3600. <
3120 1 15 9 4 13332. 13364. 3661. o
3121 1 15 9 -4 13271. 15011. 3598. o
3122 1 16 9 4 9752. 7322. 3602. o
3123 1 16 9 -4 9630. 11594. 3538. o
3124 1 17 9 4 7727. 12814. 3779. o
3125 1 17 9 -4 7709. 6590. 3662. <
3126 2 18 9 -4 3277. 7261. 8115. <
3126 1 18 9 4 3277. 7261. 8115. <
3127 2 34 3 4 13081. 8360. 4762. <
3127 1 -8 10 -4 13081. 8360. 4762. <
3128 2 32 4 4 11587. 7322. 6409. <
3128 1 -4 10 -4 11587. 7322. 6409. <
3129 1 3 10 -4 13241. 10252. 7202. <
3130 1 5 10 -4 36893. 27764. 6236. o
3131 1 6 10 -4 16325. 12143. 5556. o
3132 1 7 10 -4 13118. 10679. 5127. o
3133 1 9 10 4 24584. 13852. 8671. <
3134 1 9 10 -4 24830. 14950. 4465. o
3135 1 10 10 4 3027. 7567. 6650. <
3136 1 10 10 -4 3024. 6407. 4209. <
3137 1 2 0 5 4675. 6468. 6041. <
3138 1 2 0 -5 4650. 793. 7384. <
3139 2 -2 1 -5 9802. 8665. 6042. <
3139 1 4 0 5 9802. 8665. 6042. <
3140 2 -2 1 5 8876. 12814. 6100. o
3140 1 4 0 -5 8876. 12814. 6100. o
3141 1 6 0 5 13190. 14096. 4942. o
3142 1 6 0 -5 12972. 6224. 5007. <
3143 2 -4 2 -5 1977140. 1913970. 12160. o
3143 1 8 0 5 1977140. 1913970. 12160. o
3144 2 -4 2 5 1977780. 2009530. 7380. o
3144 1 8 0 -5 1977780. 2009530. 7380. o
3145 1 10 0 5 9448. 11594. 4026. o
3146 1 10 0 -5 9303. 10862. 3965. o
3147 2 -6 3 -5 74306. 71455. 5624. o
3147 1 12 0 5 74306. 71455. 5624. o
3148 2 -6 3 5 77776. 68892. 3888. o
3148 1 12 0 -5 77776. 68892. 3888. o
3149 1 14 0 5 27328. 30327. 4816. o
3150 1 14 0 -5 27315. 28130. 2805. o
3151 2 -8 4 -5 866319. 780454. 8926. o
3151 1 16 0 5 866319. 780454. 8926. o
3152 2 -8 4 5 865893. 861306. 4512. o
3152 1 16 0 -5 865893. 861306. 4512. o
3153 1 18 0 5 154. 2258. 3539. <
3154 1 18 0 -5 145. 854. 2136. <
3155 2 -10 5 -5 87637. 83232. 4295. o
3155 1 20 0 5 87637. 83232. 4295. o
3156 2 -10 5 5 88550. 85612. 2288. o
3156 1 20 0 -5 88550. 85612. 2288. o
3157 1 22 0 5 3810. -793. 3661. <
3158 1 22 0 -5 3778. 4516. 2013. o
3159 2 -12 6 -5 31516. 34965. 3897. o
3159 1 24 0 5 31516. 34965. 3897. o
3160 2 -12 6 5 31835. 34172. 2187. o
3160 1 24 0 -5 31835. 34172. 2187. o
3161 1 26 0 5 27254. 25507. 3847. o
3162 1 26 0 -5 26843. 25934. 2139. o
3163 2 -14 7 -5 35692. 34660. 3542. o
3163 1 28 0 5 35692. 34660. 3542. o
3164 2 -14 7 5 36693. 38931. 2309. o
3164 1 28 0 -5 36693. 38931. 2309. o
3165 1 30 0 5 3444. 1464. 3478. <
3166 1 30 0 -5 3326. 6224. 2134. o
3167 2 -16 8 -5 125359. 106481. 4166. o
3167 1 32 0 5 125359. 106481. 4166. o
3168 2 -16 8 5 124124. 121858. 2471. o
3168 1 32 0 -5 124124. 121858. 2471. o
3169 1 34 0 5 2323. 12753. 3960. o
3170 1 34 0 -5 2323. 2319. 2197. <
3171 2 -18 9 -5 11151. 13302. 4270. o
3171 1 36 0 5 11151. 13302. 4270. o
3172 2 -18 9 5 11530. 15804. 2373. o
3172 1 36 0 -5 11530. 15804. 2373. o
3173 2 20 -8 -5 45862. 42959. 4097. o
3173 1 -34 1 5 45862. 42959. 4097. o
3174 2 20 -8 5 45374. 42165. 2395. o
3174 1 -34 1 -5 45374. 42165. 2395. o
3175 2 18 -7 -5 108313. 106359. 4163. o
3175 1 -30 1 5 108313. 106359. 4163. o
3176 2 18 -7 5 107504. 108800. 2364. o
3176 1 -30 1 -5 107504. 108800. 2364. o
3177 2 16 -6 -5 21861. 20564. 3541. o
3177 1 -26 1 5 21861. 20564. 3541. o
3178 2 16 -6 5 22639. 25446. 2005. o
3178 1 -26 1 -5 22639. 25446. 2005. o
3179 2 14 -5 -5 51432. 53149. 3838. o
3179 1 -22 1 5 51432. 53149. 3838. o
3180 2 14 -5 5 49938. 50708. 2070. o
3180 1 -22 1 -5 49938. 50708. 2070. o
3181 2 12 -4 -5 94138. 84575. 4203. o
3181 1 -18 1 5 94138. 84575. 4203. o
3182 2 12 -4 5 94160. 93850. 2322. o
3182 1 -18 1 -5 94160. 93850. 2322. o
3183 2 10 -3 -5 49315. 45521. 4770. o
3183 1 -14 1 5 49315. 45521. 4770. o
3184 2 10 -3 5 51580. 51501. 2624. o
3184 1 -14 1 -5 51580. 51501. 2624. o
3185 2 8 -2 -5 148709. 141812. 4333. o
3185 1 -10 1 5 148709. 141812. 4333. o
3186 2 8 -2 5 145856. 153955. 4318. o
3186 1 -10 1 -5 145856. 153955. 4318. o
3187 2 6 -1 -5 148160. 142422. 5108. o
3187 1 -6 1 5 148160. 142422. 5108. o
3188 2 6 -1 5 148884. 145473. 5091. o
3188 1 -6 1 -5 148884. 145473. 5091. o
3189 2 4 0 -5 21548. 26849. 6463. o
3189 1 -2 1 5 21548. 26849. 6463. o
3190 2 4 0 5 22186. 28192. 6401. o
3190 1 -2 1 -5 22186. 28192. 6401. o
3191 1 1 1 5 41652. 36551. 5501. o
3192 1 1 1 -5 40961. 33134. 5201. o
3193 2 2 1 -5 25112. 28802. 6952. o
3193 1 2 1 5 25112. 28802. 6952. o
3194 2 2 1 5 25474. 24713. 7140. o
3194 1 2 1 -5 25474. 24713. 7140. o
3195 1 3 1 5 76734. 77008. 4514. o
3196 1 3 1 -5 76114. 77740. 4508. o
3197 1 4 1 5 1639. 3844. 4088. <
3198 1 4 1 -5 1644. 2502. 4149. <
3199 1 5 1 5 18528. 16903. 3663. o
3200 1 5 1 -5 19116. 16720. 3847. o
3201 1 6 1 5 121814. 121126. 5313. o
3202 1 6 1 -5 122737. 123018. 5307. o
3203 1 7 1 5 56134. 57726. 3288. o
3204 1 7 1 -5 55798. 57237. 3288. o
3205 1 8 1 5 23125. 19344. 3119. o
3206 1 8 1 -5 23212. 18001. 3182. o
3207 1 9 1 5 18607. 19100. 2989. o
3208 1 9 1 -5 18712. 19588. 2927. o
3209 2 -2 3 -5 144559. 150050. 4775. o
3209 1 10 1 5 144559. 150050. 4775. o
3210 2 -2 3 5 141832. 150965. 4745. o
3210 1 10 1 -5 141832. 150965. 4745. o
3211 1 11 1 5 14907. 10801. 3116. o
3212 1 11 1 -5 14739. 12570. 2749. o
3213 1 12 1 5 2480. 4332. 3783. <
3214 1 12 1 -5 2630. 3966. 2257. <
3215 1 13 1 5 169807. 154626. 4067. o
3216 1 13 1 -5 169778. 158959. 2457. o
3217 2 -4 4 -5 66907. 66879. 5431. o
3217 1 14 1 5 66907. 66879. 5431. o
3218 2 -4 4 5 69690. 65475. 3015. o
3218 1 14 1 -5 69690. 65475. 3015. o
3219 1 15 1 5 76975. 71516. 3509. o
3220 1 15 1 -5 76822. 73103. 1930. o
3221 1 16 1 5 7365. 9031. 3050. o
3222 1 16 1 -5 7521. 7261. 1648. o
3223 1 17 1 5 39159. 36612. 3120. o
3224 1 17 1 -5 39259. 38748. 1651. o
3225 2 -6 5 -5 104175. 99281. 4484. o
3225 1 18 1 5 104175. 99281. 4484. o
3226 2 -6 5 5 104381. 104101. 2749. o
3226 1 18 1 -5 104381. 104101. 2749. o
3227 1 19 1 5 6387. 8116. 2500. o
3228 1 19 1 -5 6544. 6834. 1525. o
3229 1 20 1 5 676. 610. 2502. <
3230 1 20 1 -5 715. 2075. 1464. <
3231 1 21 1 5 14498. 15133. 2562. o
3232 1 21 1 -5 14682. 14340. 1465. o
3233 2 -8 6 -5 76832. 71699. 4113. o
3233 1 22 1 5 76832. 71699. 4113. o
3234 2 -8 6 5 75592. 77740. 2546. o
3234 1 22 1 -5 75592. 77740. 2546. o
3235 1 23 1 5 23692. 23310. 2625. o
3236 1 23 1 -5 23578. 22944. 1711. o
3237 1 24 1 5 7886. 4332. 2565. <
3238 1 24 1 -5 7913. 9580. 1584. o
3239 1 25 1 5 49328. 48756. 2688. o
3240 1 25 1 -5 49310. 50342. 1639. o
3241 2 -10 7 -5 20771. 20137. 3845. o
3241 1 26 1 5 20771. 20137. 3845. o
3242 2 -10 7 5 21446. 21784. 2379. o
3242 1 26 1 -5 21446. 21784. 2379. o
3243 1 27 1 5 37238. 37345. 2746. o
3244 1 27 1 -5 37328. 37650. 1585. o
3245 1 28 1 5 3167. 3173. 2685. <
3246 1 28 1 -5 3232. 5248. 1524. o
3247 1 29 1 5 4422. 1831. 2564. <
3248 1 29 1 -5 4437. 7567. 1522. o
3249 2 -12 8 -5 103469. 102576. 4338. o
3249 1 30 1 5 103469. 102576. 4338. o
3250 2 -12 8 5 102621. 111485. 2461. o
3250 1 30 1 -5 102621. 111485. 2461. o
3251 1 31 1 5 4923. 3478. 2563. <
3252 1 31 1 -5 4928. 6224. 1524. o
3253 1 32 1 5 73. -305. 2746. <
3254 1 32 1 -5 65. 1831. 1586. <
3255 1 33 1 5 29512. 29961. 2806. o
3256 1 33 1 -5 29391. 28192. 1653. o
3257 2 -14 9 -5 41622. 40030. 4458. o
3257 1 34 1 5 41622. 40030. 4458. o
3258 2 -14 9 5 41178. 41189. 2502. o
3258 1 34 1 -5 41178. 41189. 2502. o
3259 1 35 1 5 6699. 9275. 2683. o
3260 1 35 1 -5 6749. 12814. 1576. o
3261 1 36 1 5 101. 8787. 2924. o
3262 1 36 1 -5 114. 4638. 1645. o
3263 2 22 -7 -5 14628. 23005. 3710. o
3263 1 -32 2 5 14628. 23005. 3710. o
3264 2 22 -7 5 14350. 13424. 2015. o
3264 1 -32 2 -5 14350. 13424. 2015. o
3265 2 20 -6 -5 58510. 58214. 3906. o
3265 1 -28 2 5 58510. 58214. 3906. o
3266 2 20 -6 5 59443. 57420. 2150. o
3266 1 -28 2 -5 59443. 57420. 2150. o
3267 2 18 -5 -5 35853. 36918. 3781. o
3267 1 -24 2 5 35853. 36918. 3781. o
3268 2 18 -5 5 37079. 31853. 2037. o
3268 1 -24 2 -5 37079. 31853. 2037. o
3269 2 16 -4 -5 473017. 437640. 6216. o
3269 1 -20 2 5 473017. 437640. 6216. o
3270 2 16 -4 5 469517. 466137. 3245. o
3270 1 -20 2 -5 469517. 466137. 3245. o
3271 2 14 -3 -5 8689. 9519. 4088. o
3271 1 -16 2 5 8689. 9519. 4088. o
3272 2 14 -3 5 8110. 10190. 2194. o
3272 1 -16 2 -5 8110. 10190. 2194. o
3273 2 12 -2 -5 57004. 53149. 5258. o
3273 1 -12 2 5 57004. 53149. 5258. o
3274 2 12 -2 5 56223. 59373. 3464. o
3274 1 -12 2 -5 56223. 59373. 3464. o
3275 2 10 -1 -5 117311. 119295. 4440. o
3275 1 -8 2 5 117311. 119295. 4440. o
3276 2 10 -1 5 118929. 125641. 4405. o
3276 1 -8 2 -5 118929. 125641. 4405. o
3277 2 8 0 -5 2068700. 2090630. 9538. o
3277 1 -4 2 5 2068700. 2090630. 9538. o
3278 2 8 0 5 2069010. 2108630. 8508. o
3278 1 -4 2 -5 2069010. 2108630. 8508. o
3279 1 1 2 5 93978. 89578. 4964. o
3280 1 1 2 -5 93036. 92934. 4882. o
3281 1 2 2 5 8033. 8177. 3966. o
3282 1 2 2 -5 8000. 6956. 4882. <
3283 1 3 2 5 62969. 61814. 4093. o
3284 1 3 2 -5 63519. 62912. 4274. o
3285 2 4 2 -5 2094760. 2255630. 44926. o
3285 1 4 2 5 2094760. 2255630. 44926. o
3286 2 4 2 5 2095130. 2235860. 4384. o
3286 1 4 2 -5 2095130. 2235860. 4384. o
3287 1 5 2 5 115487. 119600. 3872. o
3288 1 5 2 -5 116781. 120150. 3939. o
3289 1 6 2 5 523. 1159. 3112. <
3290 1 6 2 -5 512. 2014. 3234. <
3291 1 7 2 5 11388. 7872. 2993. o
3292 1 7 2 -5 10796. 10557. 3173. o
3293 2 2 3 -5 105636. 112400. 4779. o
3293 1 8 2 5 105636. 112400. 4779. o
3294 2 2 3 5 106591. 117770. 4626. o
3294 1 8 2 -5 106591. 117770. 4626. o
3295 1 9 2 5 21716. 18794. 3544. o
3296 1 9 2 -5 21326. 25202. 2921. o
3297 1 10 2 5 7100. 3966. 3235. <
3298 1 10 2 -5 6959. 5797. 2320. o
3299 1 11 2 5 23754. 21601. 3116. o
3300 1 11 2 -5 23896. 22456. 2262. o
3301 1 12 2 5 47106. 46864. 5797. o
3302 1 12 2 -5 46112. 50159. 2911. o
3303 1 13 2 5 17654. 13913. 3543. o
3304 1 13 2 -5 17968. 17086. 1955. o
3305 1 14 2 5 20562. 16354. 3423. o
3306 1 14 2 -5 20780. 17391. 1900. o
3307 1 15 2 5 16741. 15743. 3296. o
3308 1 15 2 -5 16470. 16720. 1769. o
3309 2 -2 5 -5 4866. 4393. 4699. <
3309 1 16 2 5 4866. 4393. 4699. <
3310 2 -2 5 5 4282. 4271. 2502. <
3310 1 16 2 -5 4282. 4271. 2502. <
3311 1 17 2 5 26108. 25507. 3113. o
3312 1 17 2 -5 26124. 27825. 1701. o
3313 1 18 2 5 646. 2990. 2929. <
3314 1 18 2 -5 584. 976. 1648. <
3315 1 19 2 5 15841. 20747. 2859. o
3316 1 19 2 -5 15765. 16781. 1645. o
3317 2 -4 6 -5 426548. 402004. 6527. o
3317 1 20 2 5 426548. 402004. 6527. o
3318 2 -4 6 5 423235. 434955. 2997. o
3318 1 20 2 -5 423235. 434955. 2997. o
3319 1 21 2 5 34069. 33256. 3114. o
3320 1 21 2 -5 33753. 34172. 1706. o
3321 1 22 2 5 4713. 6041. 2867. o
3322 1 22 2 -5 4722. 4027. 1526. o
3323 1 23 2 5 15943. 17574. 2865. o
3324 1 23 2 -5 16188. 15621. 1588. o
3325 2 -6 7 -5 34040. 27642. 4588. o
3325 1 24 2 5 34040. 27642. 4588. o
3326 2 -6 7 5 35264. 34355. 2505. o
3326 1 24 2 -5 35264. 34355. 2505. o
3327 1 25 2 5 1460. 2929. 2868. <
3328 1 25 2 -5 1548. 2502. 1525. <
3329 1 26 2 5 7030. 5126. 2808. <
3330 1 26 2 -5 7166. 8360. 1585. o
3331 1 27 2 5 14525. 15011. 2928. o
3332 1 27 2 -5 14805. 15743. 1645. o
3333 2 -8 8 -5 57996. 47535. 4668. o
3333 1 28 2 5 57996. 47535. 4668. o
3334 2 -8 8 5 58831. 57604. 2509. o
3334 1 28 2 -5 58831. 57604. 2509. o
3335 1 29 2 5 2625. 3417. 2929. <
3336 1 29 2 -5 2563. 4027. 1525. o
3337 1 30 2 5 3532. 5309. 2745. <
3338 1 30 2 -5 3550. 6834. 1644. o
3339 1 31 2 5 2289. 671. 2807. <
3340 1 31 2 -5 2311. 6529. 1522. o
3341 2 -10 9 -5 12957. 16354. 3841. o
3341 1 32 2 5 12957. 16354. 3841. o
3342 2 -10 9 5 12682. 15743. 2497. o
3342 1 32 2 -5 12682. 15743. 2497. o
3343 1 33 2 5 2615. 8238. 2681. o
3344 1 33 2 -5 2561. 5614. 1584. o
3345 1 34 2 5 3938. 10434. 2924. o
3346 1 34 2 -5 3985. 7139. 1583. o
3347 1 35 2 5 1695. 9397. 2680. o
3348 1 35 2 -5 1759. 6590. 1644. o
3349 2 26 -7 -5 22217. 20625. 3847. o
3349 1 -34 3 5 22217. 20625. 3847. o
3350 2 26 -7 5 21915. 18123. 2327. o
3350 1 -34 3 -5 21915. 18123. 2327. o
3351 2 24 -6 -5 8842. 4821. 3602. <
3351 1 -30 3 5 8842. 4821. 3602. <
3352 2 24 -6 5 8673. 7994. 2136. o
3352 1 -30 3 -5 8673. 7994. 2136. o
3353 2 22 -5 -5 45580. 53881. 3938. o
3353 1 -26 3 5 45580. 53881. 3938. o
3354 2 22 -5 5 46886. 49122. 2122. o
3354 1 -26 3 -5 46886. 49122. 2122. o
3355 2 20 -4 -5 104718. 101111. 4294. o
3355 1 -22 3 5 104718. 101111. 4294. o
3356 2 20 -4 5 104026. 103125. 2329. o
3356 1 -22 3 -5 104026. 103125. 2329. o
3357 2 18 -3 -5 297579. 270626. 5221. o
3357 1 -18 3 5 297579. 270626. 5221. o
3358 2 18 -3 5 297537. 287651. 3124. o
3358 1 -18 3 -5 297537. 287651. 3124. o
3359 2 16 -2 -5 23484. 26422. 4511. o
3359 1 -14 3 5 23484. 26422. 4511. o
3360 2 16 -2 5 23788. 26788. 2432. o
3360 1 -14 3 -5 23788. 26788. 2432. o
3361 2 14 -1 -5 14753. 13058. 3419. o
3361 1 -10 3 5 14753. 13058. 3419. o
3362 2 14 -1 5 14107. 15926. 3720. o
3362 1 -10 3 -5 14107. 15926. 3720. o
3363 2 12 0 -5 18515. 18306. 4089. o
3363 1 -6 3 5 18515. 18306. 4089. o
3364 2 12 0 5 17939. 18916. 3965. o
3364 1 -6 3 -5 17939. 18916. 3965. o
3365 2 10 1 -5 98379. 107640. 5691. o
3365 1 -2 3 5 98379. 107640. 5691. o
3366 2 10 1 5 99411. 103430. 5166. o
3366 1 -2 3 -5 99411. 103430. 5166. o
3367 1 1 3 5 28949. 30449. 4574. o
3368 1 1 3 -5 30126. 30693. 4453. o
3369 2 8 2 -5 90864. 97206. 6872. o
3369 1 2 3 5 90864. 97206. 6872. o
3370 2 8 2 5 91110. 89151. 7207. o
3370 1 2 3 -5 91110. 89151. 7207. o
3371 1 3 3 5 38710. 36795. 3910. o
3372 1 3 3 -5 39522. 40518. 4574. o
3373 1 4 3 5 14886. 14462. 3601. o
3374 1 4 3 -5 14752. 13608. 4089. o
3375 1 5 3 5 102507. 95924. 3949. o
3376 1 5 3 -5 100631. 104284. 4187. o
3377 2 6 3 -5 2409. 9153. 5001. <
3377 1 6 3 5 2409. 9153. 5001. <
3378 2 6 3 5 2545. 8177. 5246. <
3378 1 6 3 -5 2545. 8177. 5246. <
3379 1 7 3 5 6171. 5736. 3051. <
3380 1 7 3 -5 6511. 5187. 3357. <
3381 1 8 3 5 11949. 12326. 3966. o
3382 1 8 3 -5 11763. 12143. 2807. o
3383 1 9 3 5 39968. 37162. 3608. o
3384 1 9 3 -5 39258. 37650. 2508. o
3385 2 4 4 -5 22225. 20564. 6348. o
3385 1 10 3 5 22225. 20564. 6348. o
3386 2 4 4 5 22610. 23249. 3172. o
3386 1 10 3 -5 22610. 23249. 3172. o
3387 1 11 3 5 66959. 69380. 4016. o
3388 1 11 3 -5 67574. 68648. 2372. o
3389 1 12 3 5 37678. 34599. 4156. o
3390 1 12 3 -5 37630. 33439. 1972. o
3391 1 13 3 5 81584. 75666. 3937. o
3392 1 13 3 -5 81025. 79998. 2025. o
3393 2 2 5 -5 23914. 25812. 5551. o
3393 1 14 3 5 23914. 25812. 5551. o
3394 2 2 5 5 24056. 26239. 2618. o
3394 1 14 3 -5 24056. 26239. 2618. o
3395 1 15 3 5 70632. 64987. 3628. o
3396 1 15 3 -5 71255. 68343. 2040. o
3397 1 16 3 5 5454. 4699. 3356. <
3398 1 16 3 -5 5416. 5858. 1647. o
3399 1 17 3 5 10313. 12021. 3049. o
3400 1 17 3 -5 10726. 9519. 1649. o
3401 1 18 3 5 245000. 226936. 6047. o
3402 1 18 3 -5 244946. 253846. 3044. o
3403 1 19 3 5 32932. 32585. 3174. o
3404 1 19 3 -5 32371. 35087. 1694. o
3405 1 20 3 5 32104. 28436. 3000. o
3406 1 20 3 -5 32033. 36246. 1686. o
3407 1 21 3 5 20284. 17940. 3238. o
3408 1 21 3 -5 20102. 21357. 1643. o
3409 2 -2 7 -5 94874. 96596. 4934. o
3409 1 22 3 5 94874. 96596. 4934. o
3410 2 -2 7 5 94268. 98548. 2519. o
3410 1 22 3 -5 94268. 98548. 2519. o
3411 1 23 3 5 2125. 854. 3173. <
3412 1 23 3 -5 2055. 2136. 1525. <
3413 1 24 3 5 2650. 6773. 2988. o
3414 1 24 3 -5 2700. 5736. 1584. o
3415 1 25 3 5 28896. 23005. 3064. o
3416 1 25 3 -5 28899. 26422. 1598. o
3417 2 -4 8 -5 52196. 44972. 4779. o
3417 1 26 3 5 52196. 44972. 4779. o
3418 2 -4 8 5 53516. 54003. 2560. o
3418 1 26 3 -5 53516. 54003. 2560. o
3419 1 27 3 5 5233. 7872. 2927. o
3420 1 27 3 -5 5208. 4760. 1587. o
3421 1 28 3 5 15903. 15194. 3052. o
3422 1 28 3 -5 15845. 15499. 1526. o
3423 1 29 3 5 9049. 14279. 3106. o
3424 1 29 3 -5 9012. 8909. 1648. o
3425 2 -6 9 -5 9561. 14096. 5367. o
3425 1 30 3 5 9561. 14096. 5367. o
3426 2 -6 9 5 9398. 12997. 2497. o
3426 1 30 3 -5 9398. 12997. 2497. o
3427 1 31 3 5 10117. 11106. 3050. o
3428 1 31 3 -5 10084. 11289. 1645. o
3429 1 32 3 5 1612. 4882. 2989. <
3430 1 32 3 -5 1585. 7200. 1643. o
3431 1 33 3 5 4942. 8604. 3049. o
3432 1 33 3 -5 4953. 7872. 1644. o
3433 2 -8 10 -5 25073. 27276. 4878. o
3433 1 34 3 5 25073. 27276. 4878. o
3434 2 -8 10 5 24780. 26239. 2620. o
3434 1 34 3 -5 24780. 26239. 2620. o
3435 2 28 -6 -5 35669. 33622. 4276. o
3435 1 -32 4 5 35669. 33622. 4276. o
3436 2 28 -6 5 35310. 36124. 2315. o
3436 1 -32 4 -5 35310. 36124. 2315. o
3437 2 26 -5 -5 10979. 8177. 3724. o
3437 1 -28 4 5 10979. 8177. 3724. o
3438 2 26 -5 5 11038. 14645. 2068. o
3438 1 -28 4 -5 11038. 14645. 2068. o
3439 2 24 -4 -5 30751. 34660. 4263. o
3439 1 -24 4 5 30751. 34660. 4263. o
3440 2 24 -4 5 30874. 31792. 2377. o
3440 1 -24 4 -5 30874. 31792. 2377. o
3441 2 22 -3 -5 81022. 79876. 4765. o
3441 1 -20 4 5 81022. 79876. 4765. o
3442 2 22 -3 5 81197. 80059. 2572. o
3442 1 -20 4 -5 81197. 80059. 2572. o
3443 2 20 -2 -5 507931. 487433. 6587. o
3443 1 -16 4 5 507931. 487433. 6587. o
3444 2 20 -2 5 510848. 522337. 3058. o
3444 1 -16 4 -5 510848. 522337. 3058. o
3445 2 18 -1 -5 30355. 30693. 4881. o
3445 1 -12 4 5 30355. 30693. 4881. o
3446 2 18 -1 5 30805. 30998. 2623. o
3446 1 -12 4 -5 30805. 30998. 2623. o
3447 2 16 0 -5 422901. 419212. 4966. o
3447 1 -8 4 5 422901. 419212. 4966. o
3448 2 16 0 5 423614. 454909. 4486. o
3448 1 -8 4 -5 423614. 454909. 4486. o
3449 2 14 1 -5 98717. 91592. 4615. o
3449 1 -4 4 5 98717. 91592. 4615. o
3450 2 14 1 5 95663. 96962. 4753. o
3450 1 -4 4 -5 95663. 96962. 4753. o
3451 1 1 4 5 63790. 63217. 4396. o
3452 1 1 4 -5 65002. 60410. 3803. o
3453 1 2 4 5 20606. 22212. 3720. o
3454 1 2 4 -5 20380. 19160. 4029. o
3455 1 3 4 5 44130. 43935. 3845. o
3456 1 3 4 -5 43278. 43203. 4028. o
3457 2 10 3 -5 88658. 82744. 6367. o
3457 1 4 4 5 88658. 82744. 6367. o
3458 2 10 3 5 86117. 95863. 7780. o
3458 1 4 4 -5 86117. 95863. 7780. o
3459 1 5 4 5 75619. 68221. 4062. o
3460 1 5 4 -5 74393. 80669. 4486. o
3461 1 6 4 5 16726. 17940. 3721. o
3462 1 6 4 -5 16614. 18977. 3292. o
3463 1 7 4 5 78776. 75177. 4046. o
3464 1 7 4 -5 80110. 80730. 3352. o
3465 2 8 4 -5 303058. 334393. 8789. o
3465 1 8 4 5 303058. 334393. 8789. o
3466 2 8 4 5 303574. 332196. 4957. o
3466 1 8 4 -5 303574. 332196. 4957. o
3467 1 9 4 5 80390. 79083. 3547. o
3468 1 9 4 -5 80408. 81462. 2799. o
3469 1 10 4 5 409. 5004. 4026. <
3470 1 10 4 -5 409. 1709. 2319. <
3471 1 11 4 5 78947. 77679. 4582. o
3472 1 11 4 -5 79253. 83293. 2094. o
3473 2 6 5 -5 23148. 24713. 6833. o
3473 1 12 4 5 23148. 24713. 6833. o
3474 2 6 5 5 23703. 25080. 3292. o
3474 1 12 4 -5 23703. 25080. 3292. o
3475 1 13 4 5 19936. 15926. 3544. o
3476 1 13 4 -5 20156. 21906. 1948. o
3477 1 14 4 5 12343. 12936. 3966. o
3478 1 14 4 -5 12471. 12021. 1892. o
3479 1 15 4 5 96916. 95741. 3852. o
3480 1 15 4 -5 98064. 99464. 1995. o
3481 2 4 6 -5 472915. 498600. 7368. o
3481 1 16 4 5 472915. 498600. 7368. o
3482 2 4 6 5 474886. 485053. 3822. o
3482 1 16 4 -5 474886. 485053. 3822. o
3483 1 17 4 5 94778. 96169. 3590. o
3484 1 17 4 -5 94633. 100013. 1879. o
3485 1 18 4 5 11012. 6346. 3542. <
3486 1 18 4 -5 11077. 12143. 1707. o
3487 1 19 4 5 8857. 9153. 3173. o
3488 1 19 4 -5 9031. 10068. 1707. o
3489 2 2 7 -5 64951. 71455. 4918. o
3489 1 20 4 5 64951. 71455. 4918. o
3490 2 2 7 5 65059. 66207. 2433. o
3490 1 20 4 -5 65059. 66207. 2433. o
3491 1 21 4 5 8569. 11533. 3415. o
3492 1 21 4 -5 8447. 7689. 1710. o
3493 1 22 4 5 19857. 16781. 3300. o
3494 1 22 4 -5 19935. 19527. 1588. o
3495 1 23 4 5 728. 6773. 3110. o
3496 1 23 4 -5 686. 3295. 1647. <
3497 1 24 4 5 25289. 22639. 5312. o
3498 1 24 4 -5 25446. 30938. 2485. o
3499 1 25 4 5 633. 3844. 3050. <
3500 1 25 4 -5 585. 2319. 1708. <
3501 1 26 4 5 8398. 8787. 2990. o
3502 1 26 4 -5 8427. 8909. 1708. o
3503 1 27 4 5 5583. 7384. 2867. o
3504 1 27 4 -5 5576. 7200. 1707. o
3505 2 -2 9 -5 6348. 6285. 4577. <
3505 1 28 4 5 6348. 6285. 4577. <
3506 2 -2 9 5 6427. 4149. 2503. <
3506 1 28 4 -5 6427. 4149. 2503. <
3507 1 29 4 5 1860. 3966. 2867. <
3508 1 29 4 -5 1898. 3112. 1586. <
3509 1 30 4 5 407. 3783. 2928. <
3510 1 30 4 -5 437. 2014. 1586. <
3511 1 31 4 5 4292. 6102. 2989. o
3512 1 31 4 -5 4219. 7078. 1645. o
3513 2 -4 10 -5 31090. 25751. 4768. o
3513 1 32 4 5 31090. 25751. 4768. o
3514 2 -4 10 5 30722. 28558. 2630. o
3514 1 32 4 -5 30722. 28558. 2630. o
3515 1 33 4 5 25420. 22578. 3240. o
3516 1 33 4 -5 25179. 24347. 1773. o
3517 2 30 -5 -5 79719. 59678. 4894. o
3517 1 -30 5 5 79719. 59678. 4894. o
3518 2 30 -5 5 79621. 72248. 3219. o
3518 1 -30 5 -5 79621. 72248. 3219. o
3519 2 28 -4 -5 23354. 21723. 4640. o
3519 1 -26 5 5 23354. 21723. 4640. o
3520 2 28 -4 5 23460. 24469. 2255. o
3520 1 -26 5 -5 23460. 24469. 2255. o
3521 2 26 -3 -5 11622. 16232. 4267. o
3521 1 -22 5 5 11622. 16232. 4267. o
3522 2 26 -3 5 11174. 10618. 2502. o
3522 1 -22 5 -5 11174. 10618. 2502. o
3523 2 24 -2 -5 17539. 16354. 4090. o
3523 1 -18 5 5 17539. 16354. 4090. o
3524 2 24 -2 5 17311. 13486. 2447. o
3524 1 -18 5 -5 17311. 13486. 2447. o
3525 2 22 -1 -5 19456. 18062. 4456. o
3525 1 -14 5 5 19456. 18062. 4456. o
3526 2 22 -1 5 20415. 25934. 2488. o
3526 1 -14 5 -5 20415. 25934. 2488. o
3527 2 20 0 -5 105117. 97267. 4864. o
3527 1 -10 5 5 105117. 97267. 4864. o
3528 2 20 0 5 103860. 106908. 2714. o
3528 1 -10 5 -5 103860. 106908. 2714. o
3529 2 18 1 -5 77583. 73774. 3925. o
3529 1 -6 5 5 77583. 73774. 3925. o
3530 2 18 1 5 77186. 78717. 3653. o
3530 1 -6 5 -5 77186. 78717. 3653. o
3531 2 16 2 -5 5660. 9397. 4758. <
3531 1 -2 5 5 5660. 9397. 4758. <
3532 2 16 2 5 5992. 7445. 4149. <
3532 1 -2 5 -5 5992. 7445. 4149. <
3533 1 1 5 5 15085. 19466. 4267. o
3534 1 1 5 -5 15383. 16292. 4148. o
3535 2 14 3 -5 9883. 14096. 5856. o
3535 1 2 5 5 9883. 14096. 5856. o
3536 2 14 3 5 10060. 16903. 7624. o
3536 1 2 5 -5 10060. 16903. 7624. o
3537 1 3 5 5 9387. 14035. 3596. o
3538 1 3 5 -5 9171. 12143. 3720. o
3539 1 4 5 5 129. 1281. 3234. <
3540 1 4 5 -5 137. 1953. 3600. <
3541 1 5 5 5 51934. 52173. 3355. o
3542 1 5 5 -5 51643. 50220. 3606. o
3543 2 12 4 -5 60433. 61570. 7564. o
3543 1 6 5 5 60433. 61570. 7564. o
3544 2 12 4 5 59960. 62973. 6949. o
3544 1 6 5 -5 59960. 62973. 6949. o
3545 1 7 5 5 74567. 64804. 3589. o
3546 1 7 5 -5 73874. 74323. 3231. o
3547 1 8 5 5 117351. 107457. 4941. o
3548 1 8 5 -5 117105. 122041. 4665. o
3549 1 9 5 5 92738. 80242. 4939. o
3550 1 9 5 -5 93961. 91226. 3619. o
3551 2 10 5 -5 109549. 99586. 7663. o
3551 1 10 5 5 109549. 99586. 7663. o
3552 2 10 5 5 108675. 105627. 4778. o
3552 1 10 5 -5 108675. 105627. 4778. o
3553 1 11 5 5 19876. 19038. 4394. o
3554 1 11 5 -5 19748. 23554. 2248. o
3555 1 12 5 5 16592. 18428. 4025. o
3556 1 12 5 -5 16576. 18977. 2130. o
3557 1 13 5 5 35337. 33805. 4336. o
3558 1 13 5 -5 35675. 36124. 2073. o
3559 2 8 6 -5 36616. 27886. 5505. o
3559 1 14 5 5 36616. 27886. 5505. o
3560 2 8 6 5 37395. 32036. 3188. o
3560 1 14 5 -5 37395. 32036. 3188. o
3561 1 15 5 5 2546. 3722. 3783. <
3562 1 15 5 -5 2688. 2868. 1892. <
3563 1 16 5 5 8106. 10496. 3293. o
3564 1 16 5 -5 8032. 9580. 1951. o
3565 1 17 5 5 12967. 15072. 3659. o
3566 1 17 5 -5 12918. 13364. 1891. o
3567 2 6 7 -5 10438. 14035. 5978. o
3567 1 18 5 5 10438. 14035. 5978. o
3568 2 6 7 5 10464. 10252. 2929. o
3568 1 18 5 -5 10464. 10252. 2929. o
3569 1 19 5 5 6601. 6102. 3234. <
3570 1 19 5 -5 6802. 7384. 1830. o
3571 1 20 5 5 471. 1342. 3478. <
3572 1 20 5 -5 485. 61. 1770. <
3573 1 21 5 5 23904. 27642. 3287. o
3574 1 21 5 -5 23335. 28497. 1810. o
3575 2 4 8 -5 8577. 10557. 5308. <
3575 1 22 5 5 8577. 10557. 5308. <
3576 2 4 8 5 8451. 7017. 2564. o
3576 1 22 5 -5 8451. 7017. 2564. o
3577 1 23 5 5 19240. 19893. 3416. o
3578 1 23 5 -5 19398. 18489. 1711. o
3579 1 24 5 5 13880. 15621. 3415. o
3580 1 24 5 -5 13846. 15743. 1704. o
3581 1 25 5 5 7258. 4760. 3174. <
3582 1 25 5 -5 7263. 7872. 1769. o
3583 2 2 9 -5 22126. 17208. 5679. o
3583 1 26 5 5 22126. 17208. 5679. o
3584 2 2 9 5 22244. 20747. 2505. o
3584 1 26 5 -5 22244. 20747. 2505. o
3585 1 27 5 5 14489. 12936. 3236. o
3586 1 27 5 -5 14797. 18611. 1760. o
3587 1 28 5 5 2035. 8848. 3353. o
3588 1 28 5 -5 2124. 3661. 1708. o
3589 1 29 5 5 16634. 18855. 3292. o
3590 1 29 5 -5 16734. 18916. 1825. o
3591 1 30 5 5 65653. 54491. 5099. o
3592 1 30 5 -5 65529. 64133. 2816. o
3593 1 31 5 5 2098. 6712. 3232. o
3594 1 31 5 -5 2072. 6285. 2011. o
3595 2 32 -4 -5 30015. 27947. 4519. o
3595 1 -28 6 5 30015. 27947. 4519. o
3596 2 32 -4 5 30094. 30632. 2989. o
3596 1 -28 6 -5 30094. 30632. 2989. o
3597 2 30 -3 -5 2972. 976. 4882. <
3597 1 -24 6 5 2972. 976. 4882. <
3598 2 30 -3 5 3023. 7322. 2927. o
3598 1 -24 6 -5 3023. 7322. 2927. o
3599 2 28 -2 -5 21229. 18489. 4702. o
3599 1 -20 6 5 21229. 18489. 4702. o
3600 2 28 -2 5 20781. 19344. 2505. o
3600 1 -20 6 -5 20781. 19344. 2505. o
3601 2 26 -1 -5 14490. 16659. 4575. o
3601 1 -16 6 5 14490. 16659. 4575. o
3602 2 26 -1 5 13856. 16781. 2375. o
3602 1 -16 6 -5 13856. 16781. 2375. o
3603 2 24 0 -5 15360. 15865. 4942. o
3603 1 -12 6 5 15360. 15865. 4942. o
3604 2 24 0 5 15480. 16964. 2560. o
3604 1 -12 6 -5 15480. 16964. 2560. o
3605 2 22 1 -5 138030. 129547. 5969. o
3605 1 -8 6 5 138030. 129547. 5969. o
3606 2 22 1 5 137813. 132171. 3057. o
3606 1 -8 6 -5 137813. 132171. 3057. o
3607 2 20 2 -5 291609. 295096. 5873. o
3607 1 -4 6 5 291609. 295096. 5873. o
3608 2 20 2 5 293650. 286248. 7581. o
3608 1 -4 6 -5 293650. 286248. 7581. o
3609 1 1 6 5 38083. 41250. 4508. o
3610 1 1 6 -5 38376. 28252. 4838. o
3611 1 2 6 5 31813. 33378. 3535. o
3612 1 2 6 -5 32418. 30022. 4642. o
3613 1 3 6 5 106013. 111790. 3553. o
3614 1 3 6 -5 106551. 108190. 5055. o
3615 2 16 4 -5 302896. 321884. 7916. o
3615 1 4 6 5 302896. 321884. 7916. o
3616 2 16 4 5 303808. 318650. 9388. o
3616 1 4 6 -5 303808. 318650. 9388. o
3617 1 5 6 5 120971. 126008. 3615. o
3618 1 5 6 -5 121454. 126191. 4849. o
3619 1 6 6 5 16578. 17208. 4332. o
3620 1 6 6 -5 16705. 13730. 3969. o
3621 1 7 6 5 3128. 3966. 4088. <
3622 1 7 6 -5 2986. 3295. 2990. <
3623 2 14 5 -5 129941. 136625. 8331. o
3623 1 8 6 5 129941. 136625. 8331. o
3624 2 14 5 5 129293. 141019. 7141. o
3624 1 8 6 -5 129293. 141019. 7141. o
3625 1 9 6 5 12984. 10679. 4456. o
3626 1 9 6 -5 13291. 14462. 2378. o
3627 1 10 6 5 40853. 33256. 5018. o
3628 1 10 6 -5 40950. 38443. 2452. o
3629 1 11 6 5 18908. 20869. 4635. o
3630 1 11 6 -5 18484. 19282. 2317. o
3631 2 12 6 -5 10933. 8055. 8117. <
3631 1 12 6 5 10933. 8055. 8117. <
3632 2 12 6 5 11088. 9763. 6225. <
3632 1 12 6 -5 11088. 9763. 6225. <
3633 1 13 6 5 5908. 9763. 4514. o
3634 1 13 6 -5 5769. 7384. 2501. o
3635 1 14 6 5 1317. 366. 4394. <
3636 1 14 6 -5 1343. 2685. 2318. <
3637 1 15 6 5 4951. 9397. 4330. o
3638 1 15 6 -5 4686. 5980. 2257. o
3639 2 10 7 -5 11119. 18306. 7379. o
3639 1 16 6 5 11119. 18306. 7379. o
3640 2 10 7 5 10631. 12692. 3598. o
3640 1 16 6 -5 10631. 12692. 3598. o
3641 1 17 6 5 30075. 26849. 3911. o
3642 1 17 6 -5 29878. 29534. 2137. o
3643 1 18 6 5 5825. 4393. 3723. <
3644 1 18 6 -5 5744. 6590. 2013. o
3645 1 19 6 5 10403. 6773. 3419. <
3646 1 19 6 -5 10206. 10312. 1953. o
3647 2 8 8 -5 10306. 5370. 5677. <
3647 1 20 6 5 10306. 5370. 5677. <
3648 2 8 8 5 10005. 9397. 2930. o
3648 1 20 6 -5 10005. 9397. 2930. o
3649 1 21 6 5 52702. 54186. 3717. o
3650 1 21 6 -5 52215. 54125. 2000. o
3651 1 22 6 5 11559. 11533. 3783. o
3652 1 22 6 -5 11557. 10801. 1832. o
3653 1 23 6 5 6742. 5126. 3845. <
3654 1 23 6 -5 6939. 11167. 2192. o
3655 2 6 9 -5 2143. -1464. 5797. <
3655 1 24 6 5 2143. -1464. 5797. <
3656 2 6 9 5 2160. 3661. 2684. <
3656 1 24 6 -5 2160. 3661. 2684. <
3657 1 25 6 5 12336. 15682. 3841. o
3658 1 25 6 -5 12420. 12936. 2135. o
3659 1 26 6 5 6534. 11655. 3902. o
3660 1 26 6 -5 6677. 8665. 2073. o
3661 1 27 6 5 20516. 14950. 3790. o
3662 1 27 6 -5 20937. 22028. 2133. o
3663 2 4 10 -5 24021. 20808. 6593. o
3663 1 28 6 5 24021. 20808. 6593. o
3664 2 4 10 5 24013. 24225. 3112. o
3664 1 28 6 -5 24013. 24225. 3112. o
3665 1 29 6 5 13695. 11045. 3054. o
3666 1 29 6 -5 13581. 15255. 2255. o
3667 2 34 -3 -5 5342. 8421. 3049. o
3667 1 -26 7 5 5342. 8421. 3049. o
3668 2 34 -3 5 5471. 7872. 3294. o
3668 1 -26 7 -5 5471. 7872. 3294. o
3669 2 32 -2 -5 11656. 16170. 3290. o
3669 1 -22 7 5 11656. 16170. 3290. o
3670 2 32 -2 5 11659. 13424. 3110. o
3670 1 -22 7 -5 11659. 13424. 3110. o
3671 2 30 -1 -5 47864. 48145. 3416. o
3671 1 -18 7 5 47864. 48145. 3416. o
3672 2 30 -1 5 47865. 44301. 3430. o
3672 1 -18 7 -5 47865. 44301. 3430. o
3673 2 28 0 -5 9988. 6346. 3053. o
3673 1 -14 7 5 9988. 6346. 3053. o
3674 2 28 0 5 9956. 11350. 3172. o
3674 1 -14 7 -5 9956. 11350. 3172. o
3675 2 26 1 -5 8960. 10618. 3599. o
3675 1 -10 7 5 8960. 10618. 3599. o
3676 2 26 1 5 8805. 9397. 2990. o
3676 1 -10 7 -5 8805. 9397. 2990. o
3677 2 24 2 -5 9075. 9092. 4332. o
3677 1 -6 7 5 9075. 9092. 4332. o
3678 2 24 2 5 8857. 6834. 3601. <
3678 1 -6 7 -5 8857. 6834. 3601. <
3679 2 22 3 -5 35406. 36612. 5307. o
3679 1 -2 7 5 35406. 36612. 5307. o
3680 2 22 3 5 35180. 18001. 7764. o
3680 1 -2 7 -5 35180. 18001. 7764. o
3681 1 1 7 5 9109. 8726. 3906. o
3682 1 1 7 -5 9272. 8421. 5675. <
3683 2 20 4 -5 29198. 31060. 6222. o
3683 1 2 7 5 29198. 31060. 6222. o
3684 2 20 4 5 28821. 32768. 7623. o
3684 1 2 7 -5 28821. 32768. 7623. o
3685 1 3 7 5 57650. 64011. 5350. o
3686 1 3 7 -5 58333. 54369. 5381. o
3687 1 4 7 5 47537. 49000. 4511. o
3688 1 4 7 -5 47227. 45338. 5191. o
3689 1 5 7 5 14090. 13974. 4088. o
3690 1 5 7 -5 13940. 12204. 3480. o
3691 2 18 5 -5 3801. 6163. 6407. <
3691 1 6 7 5 3801. 6163. 6407. <
3692 2 18 5 5 3838. 5919. 6895. <
3692 1 6 7 -5 3838. 5919. 6895. <
3693 1 7 7 5 10687. 11228. 3600. o
3694 1 7 7 -5 10763. 9702. 3296. o
3695 1 8 7 5 1099. 2746. 3417. <
3696 1 8 7 -5 1028. 2685. 3051. <
3697 1 9 7 5 8028. 11472. 3537. o
3698 1 9 7 -5 7632. 8360. 3112. o
3699 2 16 6 -5 6676. 2441. 7262. <
3699 1 10 7 5 6676. 2441. 7262. <
3700 2 16 6 5 6769. 3478. 5737. <
3700 1 10 7 -5 6769. 3478. 5737. <
3701 1 11 7 5 18345. 20442. 3414. o
3702 1 11 7 -5 18607. 21601. 2740. o
3703 1 12 7 5 33318. 32524. 3602. o
3704 1 12 7 -5 33459. 33256. 2747. o
3705 1 13 7 5 1848. 4638. 3294. <
3706 1 13 7 -5 1743. 3478. 2562. <
3707 2 14 7 -5 2825. 7322. 7993. <
3707 1 14 7 5 2825. 7322. 7993. <
3708 2 14 7 5 2974. 2319. 5065. <
3708 1 14 7 -5 2974. 2319. 5065. <
3709 1 15 7 5 9240. 10923. 3294. o
3710 1 15 7 -5 9569. 10374. 2684. o
3711 1 16 7 5 10528. 10984. 3234. o
3712 1 16 7 -5 10867. 12143. 2683. o
3713 1 17 7 5 64640. 62729. 3487. o
3714 1 17 7 -5 64754. 66268. 3837. o
3715 2 12 8 -5 26937. 29107. 7748. o
3715 1 18 7 5 26937. 29107. 7748. o
3716 2 12 8 5 26758. 25324. 4884. o
3716 1 18 7 -5 26758. 25324. 4884. o
3717 1 19 7 5 8232. 10862. 3110. o
3718 1 19 7 -5 8182. 8726. 2745. o
3719 1 20 7 5 50962. 54003. 3343. o
3720 1 20 7 -5 50555. 54980. 2784. o
3721 1 21 7 5 12910. 10190. 3115. o
3722 1 21 7 -5 13209. 15926. 2559. o
3723 2 10 9 -5 9271. 9031. 7078. <
3723 1 22 7 5 9271. 9031. 7078. <
3724 2 10 9 5 9228. 9458. 3417. o
3724 1 22 7 -5 9228. 9458. 3417. o
3725 1 23 7 5 16331. 14340. 3115. o
3726 1 23 7 -5 16376. 19771. 2556. o
3727 1 24 7 5 4686. 9946. 2864. o
3728 1 24 7 -5 4791. 7994. 2255. o
3729 1 25 7 5 5106. 8482. 3049. o
3730 1 25 7 -5 5110. 8909. 2315. o
3731 2 8 10 -5 3696. 4516. 6468. <
3731 1 26 7 5 3696. 4516. 6468. <
3732 2 8 10 5 3758. 4638. 3051. <
3732 1 26 7 -5 3758. 4638. 3051. <
3733 2 34 -1 -5 30556. 25751. 3549. o
3733 1 -20 8 5 30556. 25751. 3549. o
3734 2 34 -1 5 30800. 26544. 2940. o
3734 1 -20 8 -5 30800. 26544. 2940. o
3735 2 32 0 -5 51514. 46620. 3739. o
3735 1 -16 8 5 51514. 46620. 3739. o
3736 2 32 0 5 51974. 43203. 3509. o
3736 1 -16 8 -5 51974. 43203. 3509. o
3737 2 30 1 -5 25224. 22517. 3788. o
3737 1 -12 8 5 25224. 22517. 3788. o
3738 2 30 1 5 25399. 25080. 3540. o
3738 1 -12 8 -5 25399. 25080. 3540. o
3739 2 28 2 -5 18325. 18306. 4271. o
3739 1 -8 8 5 18325. 18306. 4271. o
3740 2 28 2 5 18329. 15499. 3299. o
3740 1 -8 8 -5 18329. 15499. 3299. o
3741 2 26 3 5 41651. 33073. 4169. o
3741 1 -4 8 -5 41651. 33073. 4169. o
3742 1 1 8 -5 11177. 10618. 4150. o
3743 1 2 8 -5 5303. 7872. 3965. <
3744 1 3 8 5 330. 1220. 6102. <
3745 1 3 8 -5 397. -1159. 3661. <
3746 2 22 5 -5 32571. 33866. 6588. o
3746 1 4 8 5 32571. 33866. 6588. o
3747 2 22 5 5 32371. 36002. 7806. o
3747 1 4 8 -5 32371. 36002. 7806. o
3748 1 5 8 5 27635. 31609. 4936. o
3749 1 5 8 -5 27207. 29778. 3656. o
3750 1 6 8 5 5515. 8177. 4209. <
3751 1 6 8 -5 5476. 7322. 3294. o
3752 1 7 8 5 10146. 11472. 3843. o
3753 1 7 8 -5 10013. 10374. 3356. o
3754 2 20 6 -5 7959. 8116. 7200. <
3754 1 8 8 5 7959. 8116. 7200. <
3755 2 20 6 5 8206. 7139. 6530. <
3755 1 8 8 -5 8206. 7139. 6530. <
3756 1 9 8 5 38900. 41616. 3837. o
3757 1 9 8 -5 38659. 42226. 3344. o
3758 1 10 8 5 4364. 2197. 3540. <
3759 1 10 8 -5 4525. 4577. 3112. <
3760 1 11 8 5 13126. 15438. 3598. o
3761 1 11 8 -5 13466. 13364. 2990. o
3762 2 18 7 -5 9145. 8848. 7994. <
3762 1 12 8 5 9145. 8848. 7994. <
3763 2 18 7 5 9179. 5248. 6530. <
3763 1 12 8 -5 9179. 5248. 6530. <
3764 1 13 8 5 11325. 14462. 3658. o
3765 1 13 8 -5 11475. 11289. 2990. o
3766 1 14 8 5 23663. 21906. 3542. o
3767 1 14 8 -5 23871. 19282. 2938. o
3768 1 15 8 5 60142. 63156. 3831. o
3769 1 15 8 -5 60102. 62119. 3346. o
3770 2 16 8 -5 32016. 29046. 9583. o
3770 1 16 8 5 32016. 29046. 9583. o
3771 2 16 8 5 32178. 25385. 6171. o
3771 1 16 8 -5 32178. 25385. 6171. o
3772 1 17 8 5 28820. 27703. 3785. o
3773 1 17 8 -5 29031. 29473. 2928. o
3774 1 18 8 5 13506. 14828. 3782. o
3775 1 18 8 -5 13381. 14157. 2745. o
3776 1 19 8 5 3601. 2746. 3722. <
3777 1 19 8 -5 3676. 5736. 2501. o
3778 2 14 9 -5 22434. 16964. 8363. o
3778 1 20 8 5 22434. 16964. 8363. o
3779 2 14 9 5 22592. 23066. 5369. o
3779 1 20 8 -5 22592. 23066. 5369. o
3780 1 21 8 5 12997. 11716. 3540. o
3781 1 21 8 -5 13163. 13608. 2623. o
3782 1 22 8 5 19473. 15865. 3605. o
3783 1 22 8 -5 19811. 14706. 4338. o
3784 1 23 8 5 5481. 7261. 3355. o
3785 1 23 8 -5 5271. 8421. 3537. o
3786 2 36 0 -5 5103. 9397. 3537. o
3786 1 -18 9 5 5103. 9397. 3537. o
3787 2 36 0 5 5021. 8726. 4026. o
3787 1 -18 9 -5 5021. 8726. 4026. o
3788 2 34 1 -5 11134. 11472. 3661. o
3788 1 -14 9 5 11134. 11472. 3661. o
3789 2 34 1 5 11177. 7689. 3663. o
3789 1 -14 9 -5 11177. 7689. 3663. o
3790 2 32 2 -5 3915. 5065. 4637. <
3790 1 -10 9 5 3915. 5065. 4637. <
3791 2 32 2 5 3907. 3295. 3539. <
3791 1 -10 9 -5 3907. 3295. 3539. <
3792 2 30 3 5 6316. 6590. 4454. <
3792 1 -6 9 -5 6316. 6590. 4454. <
3793 2 28 4 5 1903. -183. 5248. <
3793 1 -2 9 -5 1903. -183. 5248. <
3794 1 1 9 -5 1341. 3966. 3905. <
3795 2 26 5 5 5262. 3600. 5858. <
3795 1 2 9 -5 5262. 3600. 5858. <
3796 1 3 9 -5 4002. 5492. 3966. <
3797 1 4 9 -5 9719. 9397. 4150. o
3798 1 5 9 -5 33630. 29229. 4524. o
3799 1 7 9 5 3795. 6346. 7078. <
3800 1 7 9 -5 3757. 5553. 4149. <
3801 1 8 9 5 41758. 38443. 6108. o
3802 1 8 9 -5 41526. 37467. 4342. o
3803 1 9 9 5 22768. 24652. 5307. o
3804 1 9 9 -5 22849. 22090. 3845. o
3805 1 11 9 5 8961. 11533. 4148. o
3806 1 11 9 -5 9108. 9214. 3966. o
3807 1 12 9 5 13116. 13669. 4088. o
3808 1 12 9 -5 13106. 13974. 3843. o
3809 1 13 9 5 2873. 4332. 3600. <
3810 1 13 9 -5 2978. 8299. 3598. o
3811 2 20 8 -5 7228. 5858. 10801. <
3811 1 14 9 5 7228. 5858. 10801. <
3812 1 15 9 5 10573. 10618. 4271. o
3813 1 15 9 -5 10563. 11838. 3660. o
3814 1 16 9 5 21674. 19588. 4396. o
3815 1 16 9 -5 21386. 19344. 3481. o
3816 1 17 9 5 1594. 4699. 4027. <
3817 1 17 9 -5 1627. 5736. 4270. <
3818 2 18 9 -5 3379. 8421. 10068. <
3818 1 18 9 5 3379. 8421. 10068. <
3819 2 34 3 5 18601. 14828. 4641. o
3819 1 -8 10 -5 18601. 14828. 4641. o
3820 2 32 4 5 8737. 6956. 5615. <
3820 1 -4 10 -5 8737. 6956. 5615. <
3821 1 1 10 -5 2235. 4821. 6834. <
3822 1 2 10 -5 20001. 18794. 6530. o
3823 1 3 10 -5 33945. 27581. 6415. o
3824 1 5 10 -5 4333. 6895. 5186. <
3825 1 6 10 -5 15379. 12875. 5006. o
3826 1 7 10 -5 980. 6224. 4453. <
3827 1 9 10 5 4602. 6773. 8970. <
3828 1 9 10 -5 4586. 7200. 4087. <
3829 2 0 0 -6 3531000. 3407820. 27237. o
3829 1 0 0 6 3531000. 3407820. 27237. o
3830 2 0 0 6 3531210. 3403000. 27251. o
3830 1 0 0 -6 3531210. 3403000. 27251. o
3831 1 2 0 6 30800. 30388. 6774. o
3832 1 2 0 -6 31125. 31487. 6773. o
3833 2 -2 1 -6 129244. 131438. 6028. o
3833 1 4 0 6 129244. 131438. 6028. o
3834 2 -2 1 6 130108. 130096. 6041. o
3834 1 4 0 -6 130108. 130096. 6041. o
3835 1 6 0 6 11926. 15743. 4695. o
3836 1 6 0 -6 11978. 13608. 4758. o
3837 2 -4 2 -6 30172. 30083. 4638. o
3837 1 8 0 6 30172. 30083. 4638. o
3838 2 -4 2 6 31278. 33073. 4695. o
3838 1 8 0 -6 31278. 33073. 4695. o
3839 1 10 0 6 42095. 42348. 4027. o
3840 1 10 0 -6 42118. 48328. 4070. o
3841 2 -6 3 -6 1455490. 1384440. 10045. o
3841 1 12 0 6 1455490. 1384440. 10045. o
3842 2 -6 3 6 1463440. 1486710. 5711. o
3842 1 12 0 -6 1463440. 1486710. 5711. o
3843 1 14 0 6 58270. 53271. 4653. o
3844 1 14 0 -6 58875. 54186. 2832. o
3845 2 -8 4 -6 43638. 40090. 4402. o
3845 1 16 0 6 43638. 40090. 4402. o
3846 2 -8 4 6 44354. 37833. 2530. o
3846 1 16 0 -6 44354. 37833. 2530. o
3847 1 18 0 6 30536. 24225. 3856. o
3848 1 18 0 -6 30506. 26117. 2211. o
3849 2 -10 5 -6 40083. 34904. 3493. o
3849 1 20 0 6 40083. 34904. 3493. o
3850 2 -10 5 6 39443. 37345. 2206. o
3850 1 20 0 -6 39443. 37345. 2206. o
3851 1 22 0 6 30819. 27886. 4033. o
3852 1 22 0 -6 31191. 26605. 2152. o
3853 2 -12 6 -6 32848. 34416. 3902. o
3853 1 24 0 6 32848. 34416. 3902. o
3854 2 -12 6 6 35435. 34538. 2201. o
3854 1 24 0 -6 35435. 34538. 2201. o
3855 1 26 0 6 35581. 33134. 3850. o
3856 1 26 0 -6 35302. 34843. 2321. o
3857 2 -14 7 -6 2017. 2441. 3600. <
3857 1 28 0 6 2017. 2441. 3600. <
3858 2 -14 7 6 2090. 2319. 2197. <
3858 1 28 0 -6 2090. 2319. 2197. <
3859 1 30 0 6 359. 2258. 3295. <
3860 1 30 0 -6 339. 3234. 2135. <
3861 2 -16 8 -6 19088. 16232. 4092. o
3861 1 32 0 6 19088. 16232. 4092. o
3862 2 -16 8 6 19028. 15438. 2265. o
3862 1 32 0 -6 19028. 15438. 2265. o
3863 1 34 0 6 5146. 5980. 3600. <
3864 1 34 0 -6 5074. 3234. 2137. <
3865 2 20 -8 -6 14133. 14950. 3904. o
3865 1 -34 1 6 14133. 14950. 3904. o
3866 2 20 -8 6 14007. 11411. 2201. o
3866 1 -34 1 -6 14007. 11411. 2201. o
3867 2 18 -7 -6 146421. 134428. 4433. o
3867 1 -30 1 6 146421. 134428. 4433. o
3868 2 18 -7 6 145949. 145412. 2510. o
3868 1 -30 1 -6 145949. 145412. 2510. o
3869 2 16 -6 -6 11066. 8848. 3419. o
3869 1 -26 1 6 11066. 8848. 3419. o
3870 2 16 -6 6 11040. 8055. 1956. o
3870 1 -26 1 -6 11040. 8055. 1956. o
3871 2 14 -5 -6 20018. 15560. 3667. o
3871 1 -22 1 6 20018. 15560. 3667. o
3872 2 14 -5 6 19619. 22578. 2128. o
3872 1 -22 1 -6 19619. 22578. 2128. o
3873 2 12 -4 -6 710907. 649748. 7784. o
3873 1 -18 1 6 710907. 649748. 7784. o
3874 2 12 -4 6 708599. 704483. 3867. o
3874 1 -18 1 -6 708599. 704483. 3867. o
3875 2 10 -3 -6 34343. 35575. 4696. o
3875 1 -14 1 6 34343. 35575. 4696. o
3876 2 10 -3 6 34180. 44179. 3139. o
3876 1 -14 1 -6 34180. 44179. 3139. o
3877 2 8 -2 -6 33457. 30510. 3729. o
3877 1 -10 1 6 33457. 30510. 3729. o
3878 2 8 -2 6 32457. 31853. 3907. o
3878 1 -10 1 -6 32457. 31853. 3907. o
3879 2 6 -1 -6 3144820. 3144940. 11524. o
3879 1 -6 1 6 3144820. 3144940. 11524. o
3880 2 6 -1 6 3142350. 3202360. 5830. o
3880 1 -6 1 -6 3142350. 3202360. 5830. o
3881 2 4 0 -6 39974. 48023. 5964. o
3881 1 -2 1 6 39974. 48023. 5964. o
3882 2 4 0 6 39455. 37589. 5983. o
3882 1 -2 1 -6 39455. 37589. 5983. o
3883 1 0 1 6 19216. 14096. 7447. <
3884 1 0 1 -6 18715. 8116. 7510. <
3885 1 1 1 6 84298. 79449. 4842. o
3886 1 1 1 -6 85210. 78839. 4849. o
3887 2 2 1 -6 15290. 18855. 6344. o
3887 1 2 1 6 15290. 18855. 6344. o
3888 2 2 1 6 15016. 17696. 7199. o
3888 1 2 1 -6 15016. 17696. 7199. o
3889 1 3 1 6 19429. 20381. 4026. o
3890 1 3 1 -6 19331. 22578. 4389. o
3891 1 4 1 6 1213. 2502. 3661. <
3892 1 4 1 -6 1159. 1892. 3966. <
3893 1 5 1 6 18889. 16903. 3420. o
3894 1 5 1 -6 18684. 17452. 3663. o
3895 2 0 2 -6 2968010. 3046700. 4709. o
3895 1 6 1 6 2968010. 3046700. 4709. o
3896 2 0 2 6 2964760. 3074770. 61281. o
3896 1 6 1 -6 2964760. 3074770. 61281. o
3897 1 7 1 6 40041. 38382. 3483. o
3898 1 7 1 -6 40119. 40396. 3660. o
3899 1 8 1 6 9884. 11594. 3049. o
3900 1 8 1 -6 9890. 10801. 2989. o
3901 1 9 1 6 1247. 1403. 2929. <
3902 1 9 1 -6 1272. 3966. 2928. <
3903 2 -2 3 -6 34590. 32829. 4641. o
3903 1 10 1 6 34590. 32829. 4641. o
3904 2 -2 3 6 33494. 30510. 4399. o
3904 1 10 1 -6 33494. 30510. 4399. o
3905 1 11 1 6 23824. 23981. 2562. o
3906 1 11 1 -6 23748. 22761. 2748. o
3907 1 12 1 6 6045. 8421. 2927. o
3908 1 12 1 -6 6055. 8177. 2500. o
3909 1 13 1 6 58664. 56871. 3730. o
3910 1 13 1 -6 58838. 57604. 2205. o
3911 2 -4 4 -6 53686. 54003. 5125. o
3911 1 14 1 6 53686. 54003. 5125. o
3912 2 -4 4 6 53700. 57604. 2786. o
3912 1 14 1 -6 53700. 57604. 2786. o
3913 1 15 1 6 183169. 161766. 3973. o
3914 1 15 1 -6 183057. 179034. 2166. o
3915 1 16 1 6 11752. 10068. 3053. o
3916 1 16 1 -6 11713. 11228. 1709. o
3917 1 17 1 6 61064. 56261. 2652. o
3918 1 17 1 -6 61230. 60105. 1719. o
3919 2 -6 5 -6 788250. 725840. 8459. o
3919 1 18 1 6 788250. 725840. 8459. o
3920 2 -6 5 6 786385. 793695. 3692. o
3920 1 18 1 -6 786385. 793695. 3692. o
3921 1 19 1 6 3809. 122. 2624. <
3922 1 19 1 -6 3843. 4149. 1525. o
3923 1 20 1 6 2707. 4149. 2562. <
3924 1 20 1 -6 2876. 4393. 1463. o
3925 1 21 1 6 9560. 4943. 2566. <
3926 1 21 1 -6 9476. 10801. 1584. o
3927 2 -8 6 -6 11468. 17208. 3899. o
3927 1 22 1 6 11468. 17208. 3899. o
3928 2 -8 6 6 11280. 13791. 2437. o
3928 1 22 1 -6 11280. 13791. 2437. o
3929 1 23 1 6 2094. 4455. 2745. <
3930 1 23 1 -6 2093. 4577. 1585. o
3931 1 24 1 6 5638. 10801. 2802. o
3932 1 24 1 -6 5595. 6346. 1525. o
3933 1 25 1 6 50607. 50098. 2809. o
3934 1 25 1 -6 50683. 53698. 1622. o
3935 2 -10 7 -6 3030. -671. 4272. <
3935 1 26 1 6 3030. -671. 4272. <
3936 2 -10 7 6 3058. 4332. 2379. <
3936 1 26 1 -6 3058. 4332. 2379. <
3937 1 27 1 6 58218. 55468. 2822. o
3938 1 27 1 -6 58268. 59983. 1631. o
3939 1 28 1 6 229. -2990. 2440. <
3940 1 28 1 -6 212. 3051. 1524. <
3941 1 29 1 6 8111. 11228. 2621. o
3942 1 29 1 -6 8078. 9580. 1523. o
3943 2 -12 8 -6 138102. 148524. 4550. o
3943 1 30 1 6 138102. 148524. 4550. o
3944 2 -12 8 6 137635. 151941. 2533. o
3944 1 30 1 -6 137635. 151941. 2533. o
3945 1 31 1 6 14817. 11960. 2810. o
3946 1 31 1 -6 14871. 15804. 1523. o
3947 1 32 1 6 7264. 3966. 2687. <
3948 1 32 1 -6 7200. 9153. 1584. o
3949 1 33 1 6 12363. 8482. 2871. o
3950 1 33 1 -6 12271. 10862. 1589. o
3951 2 -14 9 -6 16910. 20137. 3840. o
3951 1 34 1 6 16910. 20137. 3840. o
3952 2 -14 9 6 16778. 18855. 2437. o
3952 1 34 1 -6 16778. 18855. 2437. o
3953 1 35 1 6 5433. 2929. 2686. <
3954 1 35 1 -6 5456. 8543. 1644. o
3955 2 22 -7 -6 9021. 6224. 2870. o
3955 1 -32 2 6 9021. 6224. 2870. o
3956 2 22 -7 6 8962. 8238. 2075. o
3956 1 -32 2 -6 8962. 8238. 2075. o
3957 2 20 -6 -6 14512. 5492. 3484. <
3957 1 -28 2 6 14512. 5492. 3484. <
3958 2 20 -6 6 14746. 8970. 2083. o
3958 1 -28 2 -6 14746. 8970. 2083. o
3959 2 18 -5 -6 136738. 131011. 4319. o
3959 1 -24 2 6 136738. 131011. 4319. o
3960 2 18 -5 6 137157. 145412. 2244. o
3960 1 -24 2 -6 137157. 145412. 2244. o
3961 2 16 -4 -6 1631. 6468. 3843. <
3961 1 -20 2 6 1631. 6468. 3843. <
3962 2 16 -4 6 1637. 671. 2014. <
3962 1 -20 2 -6 1637. 671. 2014. <
3963 2 14 -3 -6 12184. 8604. 3786. o
3963 1 -16 2 6 12184. 8604. 3786. o
3964 2 14 -3 6 12088. 14706. 2192. o
3964 1 -16 2 -6 12088. 14706. 2192. o
3965 2 12 -2 -6 448950. 425192. 5087. o
3965 1 -12 2 6 448950. 425192. 5087. o
3966 2 12 -2 6 449279. 460645. 4329. o
3966 1 -12 2 -6 449279. 460645. 4329. o
3967 2 10 -1 -6 47739. 45155. 4096. o
3967 1 -8 2 6 47739. 45155. 4096. o
3968 2 10 -1 6 48014. 51379. 4077. o
3968 1 -8 2 -6 48014. 51379. 4077. o
3969 2 8 0 -6 7896. 9763. 4881. <
3969 1 -4 2 6 7896. 9763. 4881. <
3970 2 8 0 6 7481. 5248. 4821. <
3970 1 -4 2 -6 7481. 5248. 4821. <
3971 2 6 1 -6 2314280. 1941370. 23723. o
3971 1 0 2 6 2314280. 1941370. 23723. o
3972 2 6 1 6 2315490. 2069150. 21325. o
3972 1 0 2 -6 2315490. 2069150. 21325. o
3973 1 1 2 6 184316. 157189. 5006. o
3974 1 1 2 -6 183071. 173970. 4909. o
3975 1 2 2 6 37449. 36978. 4334. o
3976 1 2 2 -6 37522. 32707. 4464. o
3977 1 3 2 6 57854. 56871. 3970. o
3978 1 3 2 -6 58267. 52905. 4350. o
3979 2 4 2 -6 1491. 7384. 6040. <
3979 1 4 2 6 1491. 7384. 6040. <
3980 2 4 2 6 1345. 1526. 6224. <
3980 1 4 2 -6 1345. 1526. 6224. <
3981 1 5 2 6 183715. 192581. 3663. o
3982 1 5 2 -6 182448. 191422. 3851. o
3983 1 6 2 6 21311. 24042. 3473. o
3984 1 6 2 -6 21830. 25140. 3411. o
3985 1 7 2 6 5680. 8909. 3293. o
3986 1 7 2 -6 5513. 9092. 3415. o
3987 2 2 3 -6 53068. 51501. 4886. o
3987 1 8 2 6 53068. 51501. 4886. o
3988 2 2 3 6 53023. 51379. 4703. o
3988 1 8 2 -6 53023. 51379. 4703. o
3989 1 9 2 6 19428. 17879. 2871. o
3990 1 9 2 -6 19527. 20015. 2867. o
3991 1 10 2 6 61041. 58092. 2884. o
3992 1 10 2 -6 61129. 56139. 2895. o
3993 1 11 2 6 10457. 10923. 3051. o
3994 1 11 2 -6 10483. 12143. 2622. o
3995 2 0 4 -6 415352. 401821. 7520. o
3995 1 12 2 6 415352. 401821. 7520. o
3996 2 0 4 6 415605. 418418. 3824. o
3996 1 12 2 -6 415605. 418418. 3824. o
3997 1 13 2 6 75208. 68892. 3936. o
3998 1 13 2 -6 73796. 72248. 2150. o
3999 1 14 2 6 45533. 41677. 3491. o
4000 1 14 2 -6 45228. 44667. 1895. o
4001 1 15 2 6 21883. 24530. 3290. o
4002 1 15 2 -6 22015. 23981. 1763. o
4003 2 -2 5 -6 13277. 17391. 4817. o
4003 1 16 2 6 13277. 17391. 4817. o
4004 2 -2 5 6 13167. 12387. 2625. o
4004 1 16 2 -6 13167. 12387. 2625. o
4005 1 17 2 6 11018. 10374. 3052. o
4006 1 17 2 -6 10834. 12692. 1583. o
4007 1 18 2 6 14681. 14401. 2929. o
4008 1 18 2 -6 14696. 14157. 1588. o
4009 1 19 2 6 44465. 40945. 3064. o
4010 1 19 2 -6 44315. 44972. 1643. o
4011 2 -4 6 -6 5369. 4943. 4333. <
4011 1 20 2 6 5369. 4943. 4333. <
4012 2 -4 6 6 5366. 5858. 2441. o
4012 1 20 2 -6 5366. 5858. 2441. o
4013 1 21 2 6 3852. 4943. 2990. <
4014 1 21 2 -6 3816. 5431. 1585. o
4015 1 22 2 6 10280. 11228. 3355. o
4016 1 22 2 -6 10054. 11594. 1584. o
4017 1 23 2 6 1208. 4027. 2928. <
4018 1 23 2 -6 1274. 854. 1587. <
4019 2 -6 7 -6 142616. 134917. 5181. o
4019 1 24 2 6 142616. 134917. 5181. o
4020 2 -6 7 6 143047. 149806. 2647. o
4020 1 24 2 -6 143047. 149806. 2647. o
4021 1 25 2 6 26142. 29351. 2982. o
4022 1 25 2 -6 26679. 28619. 1639. o
4023 1 26 2 6 45295. 38931. 3074. o
4024 1 26 2 -6 45505. 47962. 1629. o
4025 1 27 2 6 8366. 8604. 2929. o
4026 1 27 2 -6 8199. 8299. 1525. o
4027 2 -8 8 -6 14728. 15682. 4026. o
4027 1 28 2 6 14728. 15682. 4026. o
4028 2 -8 8 6 14966. 18306. 2373. o
4028 1 28 2 -6 14966. 18306. 2373. o
4029 1 29 2 6 10281. 10374. 2746. o
4030 1 29 2 -6 10269. 9031. 1528. o
4031 1 30 2 6 1468. 7445. 2926. o
4032 1 30 2 -6 1528. 3783. 1646. o
4033 1 31 2 6 4672. 7017. 2928. o
4034 1 31 2 -6 4632. 2685. 1649. <
4035 2 -10 9 -6 8878. 4699. 4395. <
4035 1 32 2 6 8878. 4699. 4395. <
4036 2 -10 9 6 8830. 12387. 2436. o
4036 1 32 2 -6 8830. 12387. 2436. o
4037 1 33 2 6 1191. 6773. 2804. o
4038 1 33 2 -6 1211. 3722. 1646. o
4039 1 34 2 6 3537. 1220. 2868. <
4040 1 34 2 -6 3591. 6834. 1583. o
4041 1 35 2 6 105. -244. 2807. <
4042 1 35 2 -6 115. 5492. 1644. o
4043 2 26 -7 -6 5258. 9214. 4331. o
4043 1 -34 3 6 5258. 9214. 4331. o
4044 2 26 -7 6 5204. 5492. 2319. o
4044 1 -34 3 -6 5204. 5492. 2319. o
4045 2 24 -6 -6 26465. 24286. 3482. o
4045 1 -30 3 6 26465. 24286. 3482. o
4046 2 24 -6 6 26216. 28558. 2250. o
4046 1 -30 3 -6 26216. 28558. 2250. o
4047 2 22 -5 -6 807. -1159. 3356. <
4047 1 -26 3 6 807. -1159. 3356. <
4048 2 22 -5 6 844. 1281. 2014. <
4048 1 -26 3 -6 844. 1281. 2014. <
4049 2 20 -4 -6 24705. 21174. 3972. o
4049 1 -22 3 6 24705. 21174. 3972. o
4050 2 20 -4 6 24500. 26178. 2192. o
4050 1 -22 3 -6 24500. 26178. 2192. o
4051 2 18 -3 -6 828513. 799370. 7538. o
4051 1 -18 3 6 828513. 799370. 7538. o
4052 2 18 -3 6 828469. 835922. 3524. o
4052 1 -18 3 -6 828469. 835922. 3524. o
4053 2 16 -2 -6 3722. 1220. 4333. <
4053 1 -14 3 6 3722. 1220. 4333. <
4054 2 16 -2 6 3722. 4149. 2319. <
4054 1 -14 3 -6 3722. 4149. 2319. <
4055 2 14 -1 -6 13520. 18855. 3471. o
4055 1 -10 3 6 13520. 18855. 3471. o
4056 2 14 -1 6 13790. 18367. 3411. o
4056 1 -10 3 -6 13790. 18367. 3411. o
4057 2 12 0 -6 1366150. 1376630. 7693. o
4057 1 -6 3 6 1366150. 1376630. 7693. o
4058 2 12 0 6 1359820. 1418670. 4249. o
4058 1 -6 3 -6 1359820. 1418670. 4249. o
4059 2 10 1 -6 52494. 54674. 5242. o
4059 1 -2 3 6 52494. 54674. 5242. o
4060 2 10 1 6 53208. 57237. 5297. o
4060 1 -2 3 -6 53208. 57237. 5297. o
4061 1 0 3 6 10504. 6346. 6531. <
4062 1 0 3 -6 9952. 8055. 5798. <
4063 1 1 3 6 2127. 3356. 4149. <
4064 1 1 3 -6 2362. -1098. 4027. <
4065 2 8 2 -6 56682. 52966. 5684. o
4065 1 2 3 6 56682. 52966. 5684. o
4066 2 8 2 6 57171. 47779. 6792. o
4066 1 2 3 -6 57171. 47779. 6792. o
4067 1 3 3 6 32203. 35575. 4081. o
4068 1 3 3 -6 32339. 36368. 4263. o
4069 1 4 3 6 54726. 58519. 3645. o
4070 1 4 3 -6 54303. 56322. 4203. o
4071 1 5 3 6 179439. 171468. 4059. o
4072 1 5 3 -6 176924. 172505. 4018. o
4073 2 6 3 -6 1339800. 1421230. 5998. o
4073 1 6 3 6 1339800. 1421230. 5998. o
4074 2 6 3 6 1335990. 1409150. 6969. o
4074 1 6 3 -6 1335990. 1409150. 6969. o
4075 1 7 3 6 115788. 113437. 3499. o
4076 1 7 3 -6 116185. 115695. 3422. o
4077 1 8 3 6 2624. 2319. 2929. <
4078 1 8 3 -6 2539. 3112. 2807. <
4079 1 9 3 6 42722. 42776. 3600. o
4080 1 9 3 -6 42893. 46193. 2915. o
4081 2 4 4 -6 27254. 31609. 6157. o
4081 1 10 3 6 27254. 31609. 6157. o
4082 2 4 4 6 27624. 28375. 3110. o
4082 1 10 3 -6 27624. 28375. 3110. o
4083 1 11 3 6 23764. 28802. 3039. o
4084 1 11 3 -6 23743. 29229. 2301. o
4085 1 12 3 6 9033. 9031. 3051. o
4086 1 12 3 -6 8823. 9885. 2257. o
4087 1 13 3 6 43942. 47413. 3894. o
4088 1 13 3 -6 44306. 50403. 2161. o
4089 2 2 5 -6 2526. -1037. 5431. <
4089 1 14 3 6 2526. -1037. 5431. <
4090 2 2 5 6 2496. 4699. 2684. <
4090 1 14 3 -6 2496. 4699. 2684. <
4091 1 15 3 6 30665. 27398. 3485. o
4092 1 15 3 -6 30627. 26239. 1788. o
4093 1 16 3 6 1230. 4088. 3233. <
4094 1 16 3 -6 1157. 2563. 1647. <
4095 1 17 3 6 2243. 4821. 3477. <
4096 1 17 3 -6 2033. 3051. 1708. <
4097 2 0 6 -6 686150. 695208. 7405. o
4097 1 18 3 6 686150. 695208. 7405. o
4098 2 0 6 6 686078. 732553. 1237. o
4098 1 18 3 -6 686078. 732553. 1237. o
4099 1 19 3 6 153164. 145412. 3565. o
4100 1 19 3 -6 153883. 156091. 1968. o
4101 1 20 3 6 71443. 78106. 3377. o
4102 1 20 3 -6 71120. 75910. 1652. o
4103 1 21 3 6 5783. 5248. 3051. <
4104 1 21 3 -6 5757. 7994. 1706. o
4105 2 -2 7 -6 32371. 28985. 4826. o
4105 1 22 3 6 32371. 28985. 4826. o
4106 2 -2 7 6 32134. 32036. 2380. o
4106 1 22 3 -6 32134. 32036. 2380. o
4107 1 23 3 6 5161. 3966. 3296. <
4108 1 23 3 -6 5076. 5248. 1525. o
4109 1 24 3 6 1040. -549. 3051. <
4110 1 24 3 -6 1080. 2929. 1647. <
4111 1 25 3 6 17360. 21479. 2983. o
4112 1 25 3 -6 17463. 18733. 1705. o
4113 2 -4 8 -6 4472. 4149. 4638. <
4113 1 26 3 6 4472. 4149. 4638. <
4114 2 -4 8 6 4491. 6224. 2623. o
4114 1 26 3 -6 4491. 6224. 2623. o
4115 1 27 3 6 27983. 25751. 2995. o
4116 1 27 3 -6 27849. 28558. 1705. o
4117 1 28 3 6 20641. 18367. 2933. o
4118 1 28 3 -6 20590. 20991. 1646. o
4119 1 29 3 6 51239. 58092. 3202. o
4120 1 29 3 -6 51392. 51868. 1766. o
4121 2 -6 9 -6 28376. 26849. 5006. o
4121 1 30 3 6 28376. 26849. 5006. o
4122 2 -6 9 6 28142. 25812. 2569. o
4122 1 30 3 -6 28142. 25812. 2569. o
4123 1 31 3 6 3741. 10496. 3046. o
4124 1 31 3 -6 3617. 6956. 1583. o
4125 1 32 3 6 2861. 1403. 3051. <
4126 1 32 3 -6 2865. 5919. 1645. o
4127 1 33 3 6 2464. 0. 2990. <
4128 1 33 3 -6 2418. 5675. 1645. o
4129 2 -8 10 -6 3436. 3539. 4638. <
4129 1 34 3 6 3436. 3539. 4638. <
4130 2 -8 10 6 3383. 5187. 2562. o
4130 1 34 3 -6 3383. 5187. 2562. o
4131 2 28 -6 -6 5957. 12204. 4084. o
4131 1 -32 4 6 5957. 12204. 4084. o
4132 2 28 -6 6 5943. 7322. 2318. o
4132 1 -32 4 -6 5943. 7322. 2318. o
4133 2 26 -5 -6 934. -1587. 3905. <
4133 1 -28 4 6 934. -1587. 3905. <
4134 2 26 -5 6 921. 854. 2197. <
4134 1 -28 4 -6 921. 854. 2197. <
4135 2 24 -4 -6 29130. 25140. 4278. o
4135 1 -24 4 6 29130. 25140. 4278. o
4136 2 24 -4 6 29486. 27764. 2385. o
4136 1 -24 4 -6 29486. 27764. 2385. o
4137 2 22 -3 -6 7981. 7384. 4455. <
4137 1 -20 4 6 7981. 7384. 4455. <
4138 2 22 -3 6 8046. 5126. 2321. o
4138 1 -20 4 -6 8046. 5126. 2321. o
4139 2 20 -2 -6 5503. 17391. 4261. o
4139 1 -16 4 6 5503. 17391. 4261. o
4140 2 20 -2 6 5564. 8665. 2377. o
4140 1 -16 4 -6 5564. 8665. 2377. o
4141 2 18 -1 -6 346751. 339946. 6443. o
4141 1 -12 4 6 346751. 339946. 6443. o
4142 2 18 -1 6 348058. 378572. 4010. o
4142 1 -12 4 -6 348058. 378572. 4010. o
4143 2 16 0 -6 29008. 27276. 3543. o
4143 1 -8 4 6 29008. 27276. 3543. o
4144 2 16 0 6 28429. 34660. 3463. o
4144 1 -8 4 -6 28429. 34660. 3463. o
4145 2 14 1 -6 104008. 105627. 4628. o
4145 1 -4 4 6 104008. 105627. 4628. o
4146 2 14 1 6 103455. 105566. 4380. o
4146 1 -4 4 -6 103455. 105566. 4380. o
4147 2 12 2 -6 291054. 277156. 7165. o
4147 1 0 4 6 291054. 277156. 7165. o
4148 2 12 2 6 291724. 267514. 6621. o
4148 1 0 4 -6 291724. 267514. 6621. o
4149 1 1 4 6 169777. 173116. 4481. o
4150 1 1 4 -6 171033. 166586. 4258. o
4151 1 2 4 6 45639. 43996. 3849. o
4152 1 2 4 -6 45758. 38931. 3864. o
4153 1 3 4 6 10934. 9397. 3662. o
4154 1 3 4 -6 10906. 11350. 3783. o
4155 2 10 3 -6 98464. 90188. 5893. o
4155 1 4 4 6 98464. 90188. 5893. o
4156 2 10 3 6 97836. 106054. 7353. o
4156 1 4 4 -6 97836. 106054. 7353. o
4157 1 5 4 6 15164. 14950. 3478. o
4158 1 5 4 -6 15391. 17025. 3720. o
4159 1 6 4 6 54327. 53210. 3361. o
4160 1 6 4 -6 54566. 56932. 3896. o
4161 1 7 4 6 172458. 157372. 4481. o
4162 1 7 4 -6 171012. 171407. 3962. o
4163 2 8 4 -6 24782. 28619. 6830. o
4163 1 8 4 6 24782. 28619. 6830. o
4164 2 8 4 6 24431. 22700. 3664. o
4164 1 8 4 -6 24431. 22700. 3664. o
4165 1 9 4 6 69149. 72676. 3765. o
4166 1 9 4 -6 69640. 71394. 2734. o
4167 1 10 4 6 12707. 14279. 3232. o
4168 1 10 4 -6 12899. 13242. 2318. o
4169 1 11 4 6 134139. 133879. 3603. o
4170 1 11 4 -6 135410. 134795. 2511. o
4171 2 6 5 -6 325836. 352394. 8000. o
4171 1 12 4 6 325836. 352394. 8000. o
4172 2 6 5 6 326943. 328047. 4249. o
4172 1 12 4 -6 326943. 328047. 4249. o
4173 1 13 4 6 316223. 316148. 4700. o
4174 1 13 4 -6 318617. 324874. 2410. o
4175 1 14 4 6 46646. 43264. 3855. o
4176 1 14 4 -6 46984. 49976. 1933. o
4177 1 15 4 6 46556. 51318. 3828. o
4178 1 15 4 -6 46513. 47169. 1887. o
4179 2 4 6 -6 10303. 10618. 5187. o
4179 1 16 4 6 10303. 10618. 5187. o
4180 2 4 6 6 10346. 10312. 2563. o
4180 1 16 4 -6 10346. 10312. 2563. o
4181 1 17 4 6 63837. 63889. 3478. o
4182 1 17 4 -6 64128. 64377. 1889. o
4183 1 18 4 6 15690. 21174. 3531. o
4184 1 18 4 -6 15878. 17208. 1766. o
4185 1 19 4 6 20416. 22090. 3536. o
4186 1 19 4 -6 20259. 21174. 1828. o
4187 2 2 7 -6 11135. 13242. 4636. o
4187 1 20 4 6 11135. 13242. 4636. o
4188 2 2 7 6 11120. 10679. 2563. o
4188 1 20 4 -6 11120. 10679. 2563. o
4189 1 21 4 6 687. 2075. 3051. <
4190 1 21 4 -6 721. 2075. 1586. <
4191 1 22 4 6 11369. 13486. 3354. o
4192 1 22 4 -6 11552. 11838. 1647. o
4193 1 23 4 6 2205. 8787. 3231. o
4194 1 23 4 -6 2306. 2990. 1647. <
4195 2 0 8 -6 26283. 33744. 4808. o
4195 1 24 4 6 26283. 33744. 4808. o
4196 2 0 8 6 26728. 32585. 2728. o
4196 1 24 4 -6 26728. 32585. 2728. o
4197 1 25 4 6 18464. 13364. 3119. o
4198 1 25 4 -6 18086. 16170. 1714. o
4199 1 26 4 6 8415. 9946. 3050. o
4200 1 26 4 -6 8541. 12448. 1702. o
4201 1 27 4 6 4735. 5187. 3112. <
4202 1 27 4 -6 4911. 5309. 1647. o
4203 2 -2 9 -6 1836. 6407. 4575. <
4203 1 28 4 6 1836. 6407. 4575. <
4204 2 -2 9 6 1813. 732. 2441. <
4204 1 28 4 -6 1813. 732. 2441. <
4205 1 29 4 6 7048. 5187. 3296. <
4206 1 29 4 -6 7055. 9275. 1644. o
4207 1 30 4 6 7229. 8543. 2806. o
4208 1 30 4 -6 7154. 8665. 1584. o
4209 1 31 4 6 10157. 14340. 3046. o
4210 1 31 4 -6 10077. 14096. 1578. o
4211 2 -4 10 -6 5591. 3905. 4760. <
4211 1 32 4 6 5591. 3905. 4760. <
4212 2 -4 10 6 5574. 7933. 2500. o
4212 1 32 4 -6 5574. 7933. 2500. o
4213 1 33 4 6 446. 5370. 2988. <
4214 1 33 4 -6 466. 6651. 1704. o
4215 2 30 -5 -6 48038. 38504. 4660. o
4215 1 -30 5 6 48038. 38504. 4660. o
4216 2 30 -5 6 47988. 46010. 2451. o
4216 1 -30 5 -6 47988. 46010. 2451. o
4217 2 28 -4 -6 551. -1831. 4210. <
4217 1 -26 5 6 551. -1831. 4210. <
4218 2 28 -4 6 543. 5004. 2378. o
4218 1 -26 5 -6 543. 5004. 2378. o
4219 2 26 -3 -6 1076. -6712. 4147. <
4219 1 -22 5 6 1076. -6712. 4147. <
4220 2 26 -3 6 1017. 915. 2319. <
4220 1 -22 5 -6 1017. 915. 2319. <
4221 2 24 -2 -6 102186. 90250. 4943. o
4221 1 -18 5 6 102186. 90250. 4943. o
4222 2 24 -2 6 101782. 107762. 2621. o
4222 1 -18 5 -6 101782. 107762. 2621. o
4223 2 22 -1 -6 52325. 48694. 4587. o
4223 1 -14 5 6 52325. 48694. 4587. o
4224 2 22 -1 6 52984. 52661. 2504. o
4224 1 -14 5 -6 52984. 52661. 2504. o
4225 2 20 0 -6 12610. 14584. 4270. o
4225 1 -10 5 6 12610. 14584. 4270. o
4226 2 20 0 6 12684. 19466. 3469. o
4226 1 -10 5 -6 12684. 19466. 3469. o
4227 2 18 1 -6 706253. 683065. 6821. o
4227 1 -6 5 6 706253. 683065. 6821. o
4228 2 18 1 6 705520. 730539. 5465. o
4228 1 -6 5 -6 705520. 730539. 5465. o
4229 2 16 2 -6 8676. 10679. 4575. o
4229 1 -2 5 6 8676. 10679. 4575. o
4230 2 16 2 6 8739. 10496. 4331. o
4230 1 -2 5 -6 8739. 10496. 4331. o
4231 1 0 5 6 93393. 92873. 6409. o
4232 1 0 5 -6 93742. 90982. 5261. o
4233 1 1 5 6 8492. 10007. 3782. o
4234 1 1 5 -6 8750. 6468. 3540. <
4235 2 14 3 -6 6403. 9824. 5490. <
4235 1 2 5 6 6403. 9824. 5490. <
4236 2 14 3 6 6449. 9763. 5796. <
4236 1 2 5 -6 6449. 9763. 5796. <
4237 1 3 5 6 9168. 9885. 3783. o
4238 1 3 5 -6 8914. 9885. 3966. o
4239 1 4 5 6 27075. 27093. 3356. o
4240 1 4 5 -6 26939. 23920. 3789. o
4241 1 5 5 6 106128. 104955. 3488. o
4242 1 5 5 -6 106694. 105993. 3606. o
4243 2 12 4 -6 608497. 545280. 11313. o
4243 1 6 5 6 608497. 545280. 11313. o
4244 2 12 4 6 607127. 640778. 9878. o
4244 1 6 5 -6 607127. 640778. 9878. o
4245 1 7 5 6 158943. 143032. 3946. o
4246 1 7 5 -6 157025. 161461. 4227. o
4247 1 8 5 6 58109. 55834. 3488. o
4248 1 8 5 -6 57644. 58336. 3597. o
4249 1 9 5 6 7828. 7200. 3173. o
4250 1 9 5 -6 7957. 8055. 2990. o
4251 2 10 5 -6 5315. 11106. 6710. <
4251 1 10 5 6 5315. 11106. 6710. <
4252 2 10 5 6 5264. 9702. 3964. o
4252 1 10 5 -6 5264. 9702. 3964. o
4253 1 11 5 6 1598. 4393. 4271. <
4254 1 11 5 -6 1622. 2868. 2440. <
4255 1 12 5 6 2685. 3966. 3478. <
4256 1 12 5 -6 2656. 3539. 2013. <
4257 1 13 5 6 11981. 9519. 3541. o
4258 1 13 5 -6 12336. 13242. 2012. o
4259 2 8 6 -6 52907. 61997. 6752. o
4259 1 14 5 6 52907. 61997. 6752. o
4260 2 8 6 6 53589. 56444. 3160. o
4260 1 14 5 -6 53589. 56444. 3160. o
4261 1 15 5 6 5378. 1953. 3418. <
4262 1 15 5 -6 5410. 5126. 1953. o
4263 1 16 5 6 71042. 74445. 3520. o
4264 1 16 5 -6 70381. 75971. 2146. o
4265 1 17 5 6 105633. 108617. 3638. o
4266 1 17 5 -6 105793. 108678. 2159. o
4267 2 6 7 -6 98557. 104833. 6135. o
4267 1 18 5 6 98557. 104833. 6135. o
4268 2 6 7 6 98311. 88785. 3365. o
4268 1 18 5 -6 98311. 88785. 3365. o
4269 1 19 5 6 19924. 24103. 3532. o
4270 1 19 5 -6 20122. 22822. 1883. o
4271 1 20 5 6 19052. 14096. 3545. o
4272 1 20 5 -6 18759. 20747. 1825. o
4273 1 21 5 6 17195. 17696. 3233. o
4274 1 21 5 -6 16947. 18062. 1767. o
4275 2 4 8 -6 4785. 1892. 4943. <
4275 1 22 5 6 4785. 1892. 4943. <
4276 2 4 8 6 4725. 2319. 2564. <
4276 1 22 5 -6 4725. 2319. 2564. <
4277 1 23 5 6 270. 5004. 3172. <
4278 1 23 5 -6 280. -122. 1709. <
4279 1 24 5 6 6011. 3478. 3479. <
4280 1 24 5 -6 6061. 7689. 1768. o
4281 1 25 5 6 584. 1342. 3478. <
4282 1 25 5 -6 582. 2136. 1708. <
4283 2 2 9 -6 1349. 3600. 4942. <
4283 1 26 5 6 1349. 3600. 4942. <
4284 2 2 9 6 1329. 4699. 2501. <
4284 1 26 5 -6 1329. 4699. 2501. <
4285 1 27 5 6 2726. 1648. 3478. <
4286 1 27 5 -6 2658. 5919. 1828. o
4287 1 28 5 6 10666. 14950. 3168. o
4288 1 28 5 -6 10601. 16170. 1819. o
4289 1 29 5 6 6279. 10862. 3292. o
4290 1 29 5 -6 6110. 7872. 1768. o
4291 2 0 10 -6 45696. 33378. 5575. o
4291 1 30 5 6 45696. 33378. 5575. o
4292 2 0 10 6 45608. 39480. 3134. o
4292 1 30 5 -6 45608. 39480. 3134. o
4293 1 31 5 6 75570. 52112. 3584. o
4294 1 31 5 -6 75728. 70235. 2125. o
4295 2 32 -4 -6 3382. 3234. 4455. <
4295 1 -28 6 6 3382. 3234. 4455. <
4296 2 32 -4 6 3372. 9153. 2925. o
4296 1 -28 6 -6 3372. 9153. 2925. o
4297 2 30 -3 -6 12321. 9092. 4456. o
4297 1 -24 6 6 12321. 9092. 4456. o
4298 2 30 -3 6 12322. 14035. 2499. o
4298 1 -24 6 -6 12322. 14035. 2499. o
4299 2 28 -2 -6 12896. 15926. 4269. o
4299 1 -20 6 6 12896. 15926. 4269. o
4300 2 28 -2 6 12752. 14523. 2377. o
4300 1 -20 6 -6 12752. 14523. 2377. o
4301 2 26 -1 -6 38656. 34294. 4890. o
4301 1 -16 6 6 38656. 34294. 4890. o
4302 2 26 -1 6 38956. 40823. 2555. o
4302 1 -16 6 -6 38956. 40823. 2555. o
4303 2 24 0 -6 14082. 11960. 5127. o
4303 1 -12 6 6 14082. 11960. 5127. o
4304 2 24 0 6 13381. 15194. 2438. o
4304 1 -12 6 -6 13381. 15194. 2438. o
4305 2 22 1 -6 13614. 18916. 4999. o
4305 1 -8 6 6 13614. 18916. 4999. o
4306 2 22 1 6 13305. 15438. 3232. o
4306 1 -8 6 -6 13305. 15438. 3232. o
4307 2 20 2 -6 22741. 27154. 4264. o
4307 1 -4 6 6 22741. 27154. 4264. o
4308 2 20 2 6 22842. 24713. 3658. o
4308 1 -4 6 -6 22842. 24713. 3658. o
4309 2 18 3 -6 164159. 186906. 5921. o
4309 1 0 6 6 164159. 186906. 5921. o
4310 2 18 3 6 164246. 162742. 7758. o
4310 1 0 6 -6 164246. 162742. 7758. o
4311 1 1 6 6 480513. 475351. 6689. o
4312 1 1 6 -6 480593. 362218. 8197. o
4313 1 2 6 6 6395. 6712. 4088. <
4314 1 2 6 -6 6687. 9458. 4636. o
4315 1 3 6 6 51226. 55285. 3890. o
4316 1 3 6 -6 51390. 49671. 3728. o
4317 2 16 4 -6 23810. 27276. 5549. o
4317 1 4 6 6 23810. 27276. 5549. o
4318 2 16 4 6 23902. 21174. 6959. o
4318 1 4 6 -6 23902. 21174. 6959. o
4319 1 5 6 6 39156. 42348. 3346. o
4320 1 5 6 -6 39065. 39480. 3477. o
4321 1 6 6 6 89327. 87870. 3610. o
4322 1 6 6 -6 89544. 86405. 3499. o
4323 1 7 6 6 11513. 10496. 3296. o
4324 1 7 6 -6 11297. 12814. 3110. o
4325 2 14 5 -6 22688. 16232. 6839. o
4325 1 8 6 6 22688. 16232. 6839. o
4326 2 14 5 6 22193. 18001. 6167. o
4326 1 8 6 -6 22193. 18001. 6167. o
4327 1 9 6 6 7181. 5065. 4638. <
4328 1 9 6 -6 7276. 6834. 3173. o
4329 1 10 6 6 19026. 19282. 4576. o
4330 1 10 6 -6 19571. 21479. 2498. o
4331 1 11 6 6 23824. 25140. 4636. o
4332 1 11 6 -6 22966. 27276. 2490. o
4333 2 12 6 -6 8274. 7506. 8055. <
4333 1 12 6 6 8274. 7506. 8055. <
4334 2 12 6 6 8150. 8543. 5492. <
4334 1 12 6 -6 8150. 8543. 5492. <
4335 1 13 6 6 71896. 65841. 4783. o
4336 1 13 6 -6 71788. 76764. 2833. o
4337 1 14 6 6 9391. 10801. 4393. o
4338 1 14 6 -6 9705. 10374. 2318. o
4339 1 15 6 6 5097. 3417. 4028. <
4340 1 15 6 -6 5127. 4699. 2319. o
4341 2 10 7 -6 38303. 44057. 7436. o
4341 1 16 6 6 38303. 44057. 7436. o
4342 2 10 7 6 38599. 40152. 3657. o
4342 1 16 6 -6 38599. 40152. 3657. o
4343 1 17 6 6 13961. 15072. 3843. o
4344 1 17 6 -6 13950. 16414. 2131. o
4345 1 18 6 6 19332. 20198. 3843. o
4346 1 18 6 -6 19084. 20381. 2010. o
4347 1 19 6 6 7981. 7689. 3661. o
4348 1 19 6 -6 7939. 8055. 1953. o
4349 2 8 8 -6 12605. 16903. 6099. o
4349 1 20 6 6 12605. 16903. 6099. o
4350 2 8 8 6 12532. 10496. 3114. o
4350 1 20 6 -6 12532. 10496. 3114. o
4351 1 21 6 6 8431. 6346. 3296. <
4352 1 21 6 -6 8374. 8116. 1953. o
4353 1 22 6 6 3192. 2563. 3600. <
4354 1 22 6 -6 3332. 4027. 1952. o
4355 1 23 6 6 10712. 14523. 3719. o
4356 1 23 6 -6 10926. 12143. 1890. o
4357 2 6 9 -6 10442. 14584. 5855. o
4357 1 24 6 6 10442. 14584. 5855. o
4358 2 6 9 6 10414. 5248. 2993. <
4358 1 24 6 -6 10414. 5248. 2993. <
4359 1 25 6 6 79698. 67123. 4207. o
4360 1 25 6 -6 79997. 77008. 2104. o
4361 1 26 6 6 2184. 3112. 3844. <
4362 1 26 6 -6 2256. 5126. 1951. o
4363 1 27 6 6 13078. 8726. 3664. o
4364 1 27 6 -6 13135. 14157. 2073. o
4365 2 4 10 -6 2318. 11838. 6953. <
4365 1 28 6 6 2318. 11838. 6953. <
4366 2 4 10 6 2304. 8970. 3108. o
4366 1 28 6 -6 2304. 8970. 3108. o
4367 1 29 6 6 4511. 7994. 3721. o
4368 1 29 6 -6 4489. 6285. 2134. o
4369 2 34 -3 -6 11639. 12265. 3050. o
4369 1 -26 7 6 11639. 12265. 3050. o
4370 2 34 -3 6 11648. 12448. 3233. o
4370 1 -26 7 -6 11648. 12448. 3233. o
4371 2 32 -2 -6 3168. 3417. 4699. <
4371 1 -22 7 6 3168. 3417. 4699. <
4372 2 32 -2 6 3196. 11350. 3106. o
4372 1 -22 7 -6 3196. 11350. 3106. o
4373 2 30 -1 -6 74306. 72554. 4950. o
4373 1 -18 7 6 74306. 72554. 4950. o
4374 2 30 -1 6 74412. 62851. 3657. o
4374 1 -18 7 -6 74412. 62851. 3657. o
4375 2 28 0 -6 2310. 2929. 3966. <
4375 1 -14 7 6 2310. 2929. 3966. <
4376 2 28 0 6 2221. 671. 3173. <
4376 1 -14 7 -6 2221. 671. 3173. <
4377 2 26 1 -6 1690. 6651. 5552. <
4377 1 -10 7 6 1690. 6651. 5552. <
4378 2 26 1 6 1743. 5553. 2928. <
4378 1 -10 7 -6 1743. 5553. 2928. <
4379 2 24 2 -6 128934. 131194. 5416. o
4379 1 -6 7 6 128934. 131194. 5416. o
4380 2 24 2 6 128474. 120882. 6567. o
4380 1 -6 7 -6 128474. 120882. 6567. o
4381 2 22 3 -6 43209. 42287. 5494. o
4381 1 -2 7 6 43209. 42287. 5494. o
4382 2 22 3 6 43422. 27276. 7342. o
4382 1 -2 7 -6 43422. 27276. 7342. o
4383 1 0 7 6 21882. 23737. 5551. o
4384 1 0 7 -6 21210. 12936. 7693. <
4385 1 1 7 6 1301. 2319. 3783. <
4386 1 1 7 -6 1316. 3783. 5308. <
4387 2 20 4 -6 38736. 38016. 6225. o
4387 1 2 7 6 38736. 38016. 6225. o
4388 2 20 4 6 38902. 38748. 7933. o
4388 1 2 7 -6 38902. 38748. 7933. o
4389 1 3 7 6 2986. 3478. 3783. <
4390 1 3 7 -6 3161. 4516. 5247. <
4391 1 4 7 6 34740. 39663. 3586. o
4392 1 4 7 -6 34504. 33866. 5249. o
4393 1 5 7 6 22859. 26727. 3960. o
4394 1 5 7 -6 22283. 21479. 4883. o
4395 2 18 5 -6 119501. 135771. 7615. o
4395 1 6 7 6 119501. 135771. 7615. o
4396 2 18 5 6 119185. 111058. 8268. o
4396 1 6 7 -6 119185. 111058. 8268. o
4397 1 7 7 6 94628. 98853. 4123. o
4398 1 7 7 -6 94989. 90188. 3572. o
4399 1 8 7 6 73740. 75238. 3959. o
4400 1 8 7 -6 73271. 69564. 3256. o
4401 1 9 7 6 2755. 6468. 4697. <
4402 1 9 7 -6 2629. 7506. 2987. o
4403 2 16 6 -6 9307. 7139. 7018. <
4403 1 10 7 6 9307. 7139. 7018. <
4404 2 16 6 6 9302. 3905. 5981. <
4404 1 10 7 -6 9302. 3905. 5981. <
4405 1 11 7 6 1728. 61. 4638. <
4406 1 11 7 -6 1715. 3295. 2623. <
4407 1 12 7 6 51208. 48328. 4524. o
4408 1 12 7 -6 51732. 49915. 2816. o
4409 1 13 7 6 834. 5553. 4514. <
4410 1 13 7 -6 780. 366. 2685. <
4411 2 14 7 -6 2357. -1220. 6956. <
4411 1 14 7 6 2357. -1220. 6956. <
4412 2 14 7 6 2297. 1526. 4638. <
4412 1 14 7 -6 2297. 1526. 4638. <
4413 1 15 7 6 1312. 3661. 4088. <
4414 1 15 7 -6 1393. 4577. 2562. <
4415 1 16 7 6 12485. 11350. 4455. o
4416 1 16 7 -6 12078. 13364. 2805. o
4417 1 17 7 6 8047. 12265. 4635. o
4418 1 17 7 -6 8254. 10679. 3476. o
4419 2 12 8 -6 46735. 40090. 7881. o
4419 1 18 7 6 46735. 40090. 7881. o
4420 2 12 8 6 46744. 50037. 5056. o
4420 1 18 7 -6 46744. 50037. 5056. o
4421 1 19 7 6 71341. 71882. 4941. o
4422 1 19 7 -6 70904. 76215. 3201. o
4423 1 20 7 6 39076. 30510. 4289. o
4424 1 20 7 -6 39195. 42776. 2731. o
4425 1 21 7 6 5581. 3478. 4028. <
4426 1 21 7 -6 5689. 7811. 2561. o
4427 2 10 9 -6 1457. 1526. 6590. <
4427 1 22 7 6 1457. 1526. 6590. <
4428 2 10 9 6 1481. 2807. 3661. <
4428 1 22 7 -6 1481. 2807. 3661. <
4429 1 23 7 6 6754. 10984. 4330. o
4430 1 23 7 -6 6793. 10007. 2377. o
4431 1 24 7 6 10179. 6773. 2992. o
4432 1 24 7 -6 10192. 10740. 2318. o
4433 1 25 7 6 2810. 6468. 2927. o
4434 1 25 7 -6 2820. 6407. 2194. o
4435 2 8 10 -6 11590. 9153. 6591. <
4435 1 26 7 6 11590. 9153. 6591. <
4436 2 8 10 6 11589. 9763. 3053. o
4436 1 26 7 -6 11589. 9763. 3053. o
4437 2 34 -1 -6 5601. 9092. 3293. o
4437 1 -20 8 6 5601. 9092. 3293. o
4438 2 34 -1 6 5653. 12448. 3045. o
4438 1 -20 8 -6 5653. 12448. 3045. o
4439 2 32 0 -6 17562. 18794. 3721. o
4439 1 -16 8 6 17562. 18794. 3721. o
4440 2 32 0 6 17371. 16781. 3601. o
4440 1 -16 8 -6 17371. 16781. 3601. o
4441 2 30 1 -6 35745. 37345. 3840. o
4441 1 -12 8 6 35745. 37345. 3840. o
4442 2 30 1 6 35827. 36185. 3294. o
4442 1 -12 8 -6 35827. 36185. 3294. o
4443 2 28 2 -6 13869. 12570. 4395. o
4443 1 -8 8 6 13869. 12570. 4395. o
4444 2 28 2 6 13710. 14584. 2928. o
4444 1 -8 8 -6 13710. 14584. 2928. o
4445 2 26 3 -6 17928. 10190. 5862. <
4445 1 -4 8 6 17928. 10190. 5862. <
4446 2 26 3 6 17954. 12936. 3788. o
4446 1 -4 8 -6 17954. 12936. 3788. o
4447 2 24 4 -6 16138. 16170. 5065. o
4447 1 0 8 6 16138. 16170. 5065. o
4448 2 24 4 6 16082. 10252. 8301. <
4448 1 0 8 -6 16082. 10252. 8301. <
4449 1 1 8 6 48574. 53515. 5907. o
4450 1 1 8 -6 47741. 39846. 5752. o
4451 1 2 8 6 3103. 5126. 5308. <
4452 1 2 8 -6 3384. 4760. 5064. <
4453 1 3 8 6 36109. 33683. 5862. o
4454 1 3 8 -6 36149. 31853. 3854. o
4455 2 22 5 -6 17980. 17940. 5980. o
4455 1 4 8 6 17980. 17940. 5980. o
4456 2 22 5 6 18023. 16842. 7689. o
4456 1 4 8 -6 18023. 16842. 7689. o
4457 1 5 8 6 1080. 2136. 4576. <
4458 1 5 8 -6 1093. 2746. 3295. <
4459 1 6 8 6 20470. 17574. 4336. o
4460 1 6 8 -6 20175. 17147. 3482. o
4461 1 7 8 6 2619. 2746. 3905. <
4462 1 7 8 -6 2676. 5736. 3233. <
4463 2 20 6 -6 13364. 12936. 6590. <
4463 1 8 8 6 13364. 12936. 6590. <
4464 2 20 6 6 13270. 9580. 6836. <
4464 1 8 8 -6 13270. 9580. 6836. <
4465 1 9 8 6 17744. 19832. 3658. o
4466 1 9 8 -6 17637. 14950. 3177. o
4467 1 10 8 6 35836. 39175. 3713. o
4468 1 10 8 -6 36125. 35148. 3298. o
4469 1 11 8 6 114948. 127899. 4170. o
4470 1 11 8 -6 115661. 123567. 3529. o
4471 2 18 7 -6 16483. 21723. 7319. o
4471 1 12 8 6 16483. 21723. 7319. o
4472 2 18 7 6 16463. 9885. 6167. <
4472 1 12 8 -6 16463. 9885. 6167. <
4473 1 13 8 6 165575. 169393. 4416. o
4474 1 13 8 -6 164992. 168417. 3681. o
4475 1 14 8 6 18952. 19710. 3477. o
4476 1 14 8 -6 19166. 22272. 3045. o
4477 1 15 8 6 11582. 10374. 3601. o
4478 1 15 8 -6 11594. 9824. 2809. o
4479 2 16 8 -6 17154. 5187. 8729. <
4479 1 16 8 6 17154. 5187. 8729. <
4480 2 16 8 6 16986. 14157. 5677. o
4480 1 16 8 -6 16986. 14157. 5677. o
4481 1 17 8 6 656. 4027. 3538. <
4482 1 17 8 -6 638. 6346. 2805. o
4483 1 18 8 6 43554. 35453. 3805. o
4484 1 18 8 -6 43566. 40579. 2758. o
4485 1 19 8 6 12749. 9702. 3664. o
4486 1 19 8 -6 12792. 12204. 2686. o
4487 2 14 9 -6 6091. 4455. 8055. <
4487 1 20 8 6 6091. 4455. 8055. <
4488 2 14 9 6 6107. 5675. 5187. <
4488 1 20 8 -6 6107. 5675. 5187. <
4489 1 21 8 6 6306. 5065. 3418. <
4490 1 21 8 -6 6270. 7811. 2623. o
4491 1 22 8 6 5018. 6590. 3355. <
4492 1 22 8 -6 5075. 9580. 4635. o
4493 2 34 1 -6 18367. 15438. 3787. o
4493 1 -14 9 6 18367. 15438. 3787. o
4494 2 34 1 6 18444. 18428. 3966. o
4494 1 -14 9 -6 18444. 18428. 3966. o
4495 2 32 2 -6 2541. 5492. 4881. <
4495 1 -10 9 6 2541. 5492. 4881. <
4496 2 32 2 6 2520. 2807. 3722. <
4496 1 -10 9 -6 2520. 2807. 3722. <
4497 2 30 3 6 21067. 16170. 4399. o
4497 1 -6 9 -6 21067. 16170. 4399. o
4498 2 28 4 6 4710. 5248. 4820. <
4498 1 -2 9 -6 4710. 5248. 4820. <
4499 1 0 9 -6 29975. 33622. 5364. o
4500 1 1 9 -6 1795. 5187. 3538. <
4501 2 26 5 6 4607. 5553. 5003. <
4501 1 2 9 -6 4607. 5553. 5003. <
4502 1 3 9 -6 3138. 2868. 3417. <
4503 1 4 9 -6 13907. 7872. 4214. <
4504 1 5 9 -6 51491. 40274. 4363. o
4505 2 24 6 6 17263. 17330. 8360. o
4505 1 6 9 -6 17263. 17330. 8360. o
4506 1 7 9 6 3687. 6468. 7200. <
4507 1 7 9 -6 3544. 7017. 3843. <
4508 1 8 9 6 6951. 7811. 4637. <
4509 1 8 9 -6 6867. 9885. 3720. o
4510 1 9 9 6 2565. 4088. 4332. <
4511 1 9 9 -6 2659. 5431. 3660. <
4512 2 22 7 -6 980. 5004. 8237. <
4512 1 10 9 6 980. 5004. 8237. <
4513 2 22 7 6 943. 3234. 7932. <
4513 1 10 9 -6 943. 3234. 7932. <
4514 1 11 9 6 1706. 3539. 4088. <
4515 1 11 9 -6 1695. 5126. 3477. <
4516 1 12 9 6 8827. 9580. 4088. o
4517 1 12 9 -6 8648. 9641. 3600. o
4518 1 13 9 6 1501. 4088. 3722. <
4519 1 13 9 -6 1513. 3722. 3478. <
4520 2 20 8 -6 16109. 18245. 8847. o
4520 1 14 9 6 16109. 18245. 8847. o
4521 2 20 8 6 16154. 11228. 6715. <
4521 1 14 9 -6 16154. 11228. 6715. <
4522 1 15 9 6 48. 6102. 3782. <
4523 1 15 9 -6 67. 5065. 3355. <
4524 1 16 9 6 25550. 21784. 4338. o
4525 1 16 9 -6 25770. 20747. 3609. o
4526 1 17 9 6 185. 4088. 4027. <
4527 1 17 9 -6 223. 4943. 3416. <
4528 2 34 3 6 3176. 5065. 4210. <
4528 1 -8 10 -6 3176. 5065. 4210. <
4529 2 32 4 6 1659. 4393. 5003. <
4529 1 -4 10 -6 1659. 4393. 5003. <
4530 2 30 5 6 36750. 25262. 6908. o
4530 1 0 10 -6 36750. 25262. 6908. o
4531 1 1 10 -6 71427. 56200. 5355. o
4532 1 2 10 -6 86527. 70235. 5914. o
4533 1 3 10 -6 7765. 10252. 5552. <
4534 1 5 10 -6 111. 5248. 5064. <
4535 1 6 10 -6 29225. 19832. 4650. o
4536 1 7 10 -6 2530. 7689. 4331. <
4537 1 2 0 7 16979. 13486. 5921. o
4538 1 2 0 -7 16700. 15926. 6042. o
4539 2 -2 1 -7 119053. 112888. 5829. o
4539 1 4 0 7 119053. 112888. 5829. o
4540 2 -2 1 7 117688. 104406. 5923. o
4540 1 4 0 -7 117688. 104406. 5923. o
4541 1 6 0 7 2141. 2929. 5004. <
4542 1 6 0 -7 2305. 2258. 5126. <
4543 2 -4 2 -7 450483. 445451. 5780. o
4543 1 8 0 7 450483. 445451. 5780. o
4544 2 -4 2 7 450614. 452529. 5204. o
4544 1 8 0 -7 450614. 452529. 5204. o
4545 1 10 0 7 49529. 41372. 3990. o
4546 1 10 0 -7 49508. 45094. 3919. o
4547 2 -6 3 -7 98909. 92141. 3828. o
4547 1 12 0 7 98909. 92141. 3828. o
4548 2 -6 3 7 100132. 96474. 3930. o
4548 1 12 0 -7 100132. 96474. 3930. o
4549 1 14 0 7 14637. 19588. 4694. o
4550 1 14 0 -7 14823. 14462. 3235. o
4551 2 -8 4 -7 345211. 319870. 5939. o
4551 1 16 0 7 345211. 319870. 5939. o
4552 2 -8 4 7 344066. 345011. 3207. o
4552 1 16 0 -7 344066. 345011. 3207. o
4553 1 18 0 7 12631. 18855. 3837. o
4554 1 18 0 -7 12338. 12143. 2075. o
4555 2 -10 5 -7 140580. 131255. 4229. o
4555 1 20 0 7 140580. 131255. 4229. o
4556 2 -10 5 7 140959. 146633. 2413. o
4556 1 20 0 -7 140959. 146633. 2413. o
4557 1 22 0 7 42598. 36978. 4163. o
4558 1 22 0 -7 42776. 41921. 2262. o
4559 2 -12 6 -7 230729. 228278. 4730. o
4559 1 24 0 7 230729. 228278. 4730. o
4560 2 -12 6 7 228991. 238041. 2597. o
4560 1 24 0 -7 228991. 238041. 2597. o
4561 1 26 0 7 251. -5370. 3721. <
4562 1 26 0 -7 275. 2502. 2196. <
4563 2 -14 7 -7 7031. 13119. 3779. o
4563 1 28 0 7 7031. 13119. 3779. o
4564 2 -14 7 7 6710. 8970. 2133. o
4564 1 28 0 -7 6710. 8970. 2133. o
4565 1 30 0 7 240. -2746. 3783. <
4566 1 30 0 -7 235. -2441. 2135. <
4567 2 -16 8 -7 39170. 44240. 4258. o
4567 1 32 0 7 39170. 44240. 4258. o
4568 2 -16 8 7 39414. 41006. 2250. o
4568 1 32 0 -7 39414. 41006. 2250. o
4569 1 34 0 7 15041. 11411. 4152. o
4570 1 34 0 -7 14925. 16354. 2316. o
4571 2 20 -8 -7 30748. 28680. 3727. o
4571 1 -34 1 7 30748. 28680. 3727. o
4572 2 20 -8 7 30682. 31914. 2375. o
4572 1 -34 1 -7 30682. 31914. 2375. o
4573 2 18 -7 -7 161870. 159264. 4237. o
4573 1 -30 1 7 161870. 159264. 4237. o
4574 2 18 -7 7 162509. 169088. 2510. o
4574 1 -30 1 -7 162509. 169088. 2510. o
4575 2 16 -6 -7 8990. 9092. 3417. o
4575 1 -26 1 7 8990. 9092. 3417. o
4576 2 16 -6 7 9066. 8482. 2075. o
4576 1 -26 1 -7 9066. 8482. 2075. o
4577 2 14 -5 -7 70808. 55834. 4208. o
4577 1 -22 1 7 70808. 55834. 4208. o
4578 2 14 -5 7 71081. 69136. 2395. o
4578 1 -22 1 -7 71081. 69136. 2395. o
4579 2 12 -4 -7 150399. 146083. 4432. o
4579 1 -18 1 7 150399. 146083. 4432. o
4580 2 12 -4 7 151415. 148829. 2543. o
4580 1 -18 1 -7 151415. 148829. 2543. o
4581 2 10 -3 -7 37195. 34660. 3120. o
4581 1 -14 1 7 37195. 34660. 3120. o
4582 2 10 -3 7 36121. 39175. 3102. o
4582 1 -14 1 -7 36121. 39175. 3102. o
4583 2 8 -2 -7 116438. 105139. 4108. o
4583 1 -10 1 7 116438. 105139. 4108. o
4584 2 8 -2 7 117112. 112034. 4126. o
4584 1 -10 1 -7 117112. 112034. 4126. o
4585 2 6 -1 -7 44576. 46925. 4754. o
4585 1 -6 1 7 44576. 46925. 4754. o
4586 2 6 -1 7 45363. 46315. 4879. o
4586 1 -6 1 -7 45363. 46315. 4879. o
4587 2 4 0 -7 48419. 48694. 5979. o
4587 1 -2 1 7 48419. 48694. 5979. o
4588 2 4 0 7 49074. 41433. 5995. o
4588 1 -2 1 -7 49074. 41433. 5995. o
4589 1 1 1 7 238213. 213816. 4996. o
4590 1 1 1 -7 238060. 218454. 5001. o
4591 2 2 1 -7 29585. 27154. 5739. o
4591 1 2 1 7 29585. 27154. 5739. o
4592 2 2 1 7 29883. 19527. 5930. o
4592 1 2 1 -7 29883. 19527. 5930. o
4593 1 3 1 7 3002. 7017. 3965. <
4594 1 3 1 -7 2952. 4027. 4210. <
4595 1 4 1 7 18997. 19588. 3966. o
4596 1 4 1 -7 18889. 17635. 3846. o
4597 1 5 1 7 59840. 63339. 3890. o
4598 1 5 1 -7 59557. 58031. 3790. o
4599 1 6 1 7 36522. 43569. 4866. o
4600 1 6 1 -7 37523. 39602. 4999. o
4601 1 7 1 7 1609. 2502. 3234. <
4602 1 7 1 -7 1639. 854. 3234. <
4603 1 8 1 7 13315. 13547. 3051. o
4604 1 8 1 -7 13305. 11838. 3114. o
4605 1 9 1 7 120602. 120333. 3115. o
4606 1 9 1 -7 120969. 121919. 3102. o
4607 2 -2 3 -7 70366. 73591. 4379. o
4607 1 10 1 7 70366. 73591. 4379. o
4608 2 -2 3 7 71363. 82744. 4339. o
4608 1 10 1 -7 71363. 82744. 4339. o
4609 1 11 1 7 133706. 126313. 2955. o
4610 1 11 1 -7 133921. 132659. 2884. o
4611 1 12 1 7 1363. 3356. 2440. <
4612 1 12 1 -7 1375. -305. 2441. <
4613 1 13 1 7 10042. 9702. 2197. o
4614 1 13 1 -7 10063. 10984. 2318. o
4615 2 -4 4 -7 51822. 53637. 4999. o
4615 1 14 1 7 51822. 53637. 4999. o
4616 2 -4 4 7 50713. 54308. 3586. o
4616 1 14 1 -7 50713. 54308. 3586. o
4617 1 15 1 7 3408. 2197. 3173. <
4618 1 15 1 -7 3582. 3417. 1892. <
4619 1 16 1 7 11807. 9031. 3053. o
4620 1 16 1 -7 11598. 11106. 1648. o
4621 1 17 1 7 7402. 7567. 2868. o
4622 1 17 1 -7 7508. 10068. 1644. o
4623 2 -6 5 -7 148883. 144192. 4677. o
4623 1 18 1 7 148883. 144192. 4677. o
4624 2 -6 5 7 149922. 156823. 2640. o
4624 1 18 1 -7 149922. 156823. 2640. o
4625 1 19 1 7 11978. 15377. 2680. o
4626 1 19 1 -7 11964. 13302. 1522. o
4627 1 20 1 7 809. 1770. 2563. <
4628 1 20 1 -7 819. 3539. 1463. o
4629 1 21 1 7 81709. 77618. 3019. o
4630 1 21 1 -7 81556. 81096. 1714. o
4631 2 -8 6 -7 85650. 74628. 4325. o
4631 1 22 1 7 85650. 74628. 4325. o
4632 2 -8 6 7 85553. 86527. 2677. o
4632 1 22 1 -7 85553. 86527. 2677. o
4633 1 23 1 7 35994. 32646. 2818. o
4634 1 23 1 -7 36025. 41006. 1616. o
4635 1 24 1 7 12514. 12936. 2867. o
4636 1 24 1 -7 12604. 13852. 1645. o
4637 1 25 1 7 8172. 8482. 2685. o
4638 1 25 1 -7 8119. 8299. 1525. o
4639 2 -10 7 -7 9203. 7933. 4272. <
4639 1 26 1 7 9203. 7933. 4272. <
4640 2 -10 7 7 9145. 8726. 2380. o
4640 1 26 1 -7 9145. 8726. 2380. o
4641 1 27 1 7 17460. 16170. 2687. o
4642 1 27 1 -7 17360. 19100. 1581. o
4643 1 28 1 7 2506. -366. 2746. <
4644 1 28 1 -7 2576. 5492. 1584. o
4645 1 29 1 7 12305. 15011. 2742. o
4646 1 29 1 -7 12221. 17391. 1573. o
4647 2 -12 8 -7 156712. 160789. 4662. o
4647 1 30 1 7 156712. 160789. 4662. o
4648 2 -12 8 7 157346. 178241. 2513. o
4648 1 30 1 -7 157346. 178241. 2513. o
4649 1 31 1 7 1114. 3356. 2501. <
4650 1 31 1 -7 1100. 2014. 1586. <
4651 1 32 1 7 133. 4821. 2561. <
4652 1 32 1 -7 139. 4638. 1584. o
4653 1 33 1 7 21042. 20625. 2930. o
4654 1 33 1 -7 21122. 20930. 1648. o
4655 2 -14 9 -7 28161. 19832. 4344. o
4655 1 34 1 7 28161. 19832. 4344. o
4656 2 -14 9 7 28121. 31120. 2370. o
4656 1 34 1 -7 28121. 31120. 2370. o
4657 1 35 1 7 4358. 5614. 2928. <
4658 1 35 1 -7 4344. 8848. 1642. o
4659 2 22 -7 -7 16904. 9214. 4033. o
4659 1 -32 2 7 16904. 9214. 4033. o
4660 2 22 -7 7 16857. 16476. 2137. o
4660 1 -32 2 -7 16857. 16476. 2137. o
4661 2 20 -6 -7 18745. 26300. 3709. o
4661 1 -28 2 7 18745. 26300. 3709. o
4662 2 20 -6 7 18401. 21845. 2066. o
4662 1 -28 2 -7 18401. 21845. 2066. o
4663 2 18 -5 -7 22548. 15560. 3731. o
4663 1 -24 2 7 22548. 15560. 3731. o
4664 2 18 -5 7 22620. 20991. 1957. o
4664 1 -24 2 -7 22620. 20991. 1957. o
4665 2 16 -4 -7 80801. 86954. 3869. o
4665 1 -20 2 7 80801. 86954. 3869. o
4666 2 16 -4 7 81859. 88480. 2252. o
4666 1 -20 2 -7 81859. 88480. 2252. o
4667 2 14 -3 -7 39209. 41616. 4143. o
4667 1 -16 2 7 39209. 41616. 4143. o
4668 2 14 -3 7 37568. 44301. 2224. o
4668 1 -16 2 -7 37568. 44301. 2224. o
4669 2 12 -2 -7 439182. 382904. 5552. o
4669 1 -12 2 7 439182. 382904. 5552. o
4670 2 12 -2 7 438846. 424215. 4816. o
4670 1 -12 2 -7 438846. 424215. 4816. o
4671 2 10 -1 -7 260746. 257507. 4988. o
4671 1 -8 2 7 260746. 257507. 4988. o
4672 2 10 -1 7 261570. 265379. 4703. o
4672 1 -8 2 -7 261570. 265379. 4703. o
4673 2 8 0 -7 607297. 630404. 6248. o
4673 1 -4 2 7 607297. 630404. 6248. o
4674 2 8 0 7 606691. 617041. 6392. o
4674 1 -4 2 -7 606691. 617041. 6392. o
4675 1 1 2 7 25796. 25140. 4333. o
4676 1 1 2 -7 25491. 21235. 4217. o
4677 1 2 2 7 17553. 19832. 4086. o
4678 1 2 2 -7 17471. 16109. 4029. o
4679 1 3 2 7 27840. 26849. 3785. o
4680 1 3 2 -7 28212. 24530. 4095. o
4681 2 4 2 -7 650184. 611549. 8374. o
4681 1 4 2 7 650184. 611549. 8374. o
4682 2 4 2 7 649708. 639984. 8081. o
4682 1 4 2 -7 649708. 639984. 8081. o
4683 1 5 2 7 49371. 55468. 3822. o
4684 1 5 2 -7 50835. 50830. 3844. o
4685 1 6 2 7 5398. 7078. 3355. o
4686 1 6 2 -7 5360. 6224. 3356. <
4687 1 7 2 7 176. 305. 3295. <
4688 1 7 2 -7 235. 1342. 3112. <
4689 2 2 3 -7 254233. 270138. 5537. o
4689 1 8 2 7 254233. 270138. 5537. o
4690 2 2 3 7 255352. 271847. 5465. o
4690 1 8 2 -7 255352. 271847. 5465. o
4691 1 9 2 7 24130. 21723. 2812. o
4692 1 9 2 -7 23579. 21113. 2934. o
4693 1 10 2 7 36526. 39663. 2734. o
4694 1 10 2 -7 36317. 42043. 2662. o
4695 1 11 2 7 60489. 57848. 2700. o
4696 1 11 2 -7 60678. 60655. 2624. o
4697 1 12 2 7 361645. 347146. 5037. o
4698 1 12 2 -7 361216. 376070. 4571. o
4699 1 13 2 7 3239. 5370. 2684. <
4700 1 13 2 -7 3335. 2563. 2441. <
4701 1 14 2 7 2431. 4210. 2562. <
4702 1 14 2 -7 2425. 3295. 2074. <
4703 1 15 2 7 239. 2319. 3173. <
4704 1 15 2 -7 257. 2502. 1891. <
4705 2 -2 5 -7 37939. 39114. 4940. o
4705 1 16 2 7 37939. 39114. 4940. o
4706 2 -2 5 7 36283. 41067. 2912. o
4706 1 16 2 -7 36283. 41067. 2912. o
4707 1 17 2 7 304. 1220. 3112. <
4708 1 17 2 -7 290. 3722. 1707. o
4709 1 18 2 7 151. -1098. 3051. <
4710 1 18 2 -7 165. -183. 1648. <
4711 1 19 2 7 12497. 13547. 2989. o
4712 1 19 2 -7 12593. 13669. 1584. o
4713 2 -4 6 -7 81704. 84330. 4992. o
4713 1 20 2 7 81704. 84330. 4992. o
4714 2 -4 6 7 82693. 88907. 2631. o
4714 1 20 2 -7 82693. 88907. 2631. o
4715 1 21 2 7 11836. 13058. 3050. o
4716 1 21 2 -7 11898. 14218. 1642. o
4717 1 22 2 7 34750. 36795. 3106. o
4718 1 22 2 -7 34696. 37650. 1692. o
4719 1 23 2 7 17952. 16842. 2992. o
4720 1 23 2 -7 18087. 20137. 1580. o
4721 2 -6 7 -7 20562. 24103. 4755. o
4721 1 24 2 7 20562. 24103. 4755. o
4722 2 -6 7 7 20672. 24225. 2677. o
4722 1 24 2 -7 20672. 24225. 2677. o
4723 1 25 2 7 1697. 2441. 2685. <
4724 1 25 2 -7 1702. 2502. 1525. <
4725 1 26 2 7 4894. 8238. 2866. o
4726 1 26 2 -7 4828. 7384. 1584. o
4727 1 27 2 7 321. 4332. 2867. <
4728 1 27 2 -7 303. 854. 1525. <
4729 2 -8 8 -7 24324. 24530. 4393. o
4729 1 28 2 7 24324. 24530. 4393. o
4730 2 -8 8 7 23994. 25873. 2374. o
4730 1 28 2 -7 23994. 25873. 2374. o
4731 1 29 2 7 2134. 1098. 2868. <
4732 1 29 2 -7 2177. 2502. 1586. <
4733 1 30 2 7 11420. 12875. 2866. o
4734 1 30 2 -7 11318. 13302. 1582. o
4735 1 31 2 7 4259. 3722. 2807. <
4736 1 31 2 -7 4290. 4882. 1708. o
4737 2 -10 9 -7 17473. 15133. 4396. o
4737 1 32 2 7 17473. 15133. 4396. o
4738 2 -10 9 7 17428. 19710. 2436. o
4738 1 32 2 -7 17428. 19710. 2436. o
4739 1 33 2 7 11784. 8665. 2993. o
4740 1 33 2 -7 11750. 9702. 1712. o
4741 1 34 2 7 13282. 16476. 2863. o
4742 1 34 2 -7 13392. 16414. 1701. o
4743 2 26 -7 -7 28639. 18306. 4468. o
4743 1 -34 3 7 28639. 18306. 4468. o
4744 2 26 -7 7 28944. 24164. 2394. o
4744 1 -34 3 -7 28944. 24164. 2394. o
4745 2 24 -6 -7 22484. 24713. 3963. o
4745 1 -30 3 7 22484. 24713. 3963. o
4746 2 24 -6 7 22712. 22822. 2257. o
4746 1 -30 3 -7 22712. 22822. 2257. o
4747 2 22 -5 -7 46930. 53576. 4005. o
4747 1 -26 3 7 46930. 53576. 4005. o
4748 2 22 -5 7 46178. 47474. 2251. o
4748 1 -26 3 -7 46178. 47474. 2251. o
4749 2 20 -4 -7 44729. 37772. 3864. o
4749 1 -22 3 7 44729. 37772. 3864. o
4750 2 20 -4 7 44929. 43935. 2324. o
4750 1 -22 3 -7 44929. 43935. 2324. o
4751 2 18 -3 -7 247083. 247805. 5483. o
4751 1 -18 3 7 247083. 247805. 5483. o
4752 2 18 -3 7 247409. 257385. 2622. o
4752 1 -18 3 -7 247409. 257385. 2622. o
4753 2 16 -2 -7 22855. 25507. 4756. o
4753 1 -14 3 7 22855. 25507. 4756. o
4754 2 16 -2 7 23669. 29534. 3159. o
4754 1 -14 3 -7 23669. 29534. 3159. o
4755 2 14 -1 -7 39395. 41494. 3533. o
4755 1 -10 3 7 39395. 41494. 3533. o
4756 2 14 -1 7 40284. 44545. 3464. o
4756 1 -10 3 -7 40284. 44545. 3464. o
4757 2 12 0 -7 117992. 124787. 4959. o
4757 1 -6 3 7 117992. 124787. 4959. o
4758 2 12 0 7 117256. 117587. 4269. o
4758 1 -6 3 -7 117256. 117587. 4269. o
4759 2 10 1 -7 47715. 58824. 5523. o
4759 1 -2 3 7 47715. 58824. 5523. o
4760 2 10 1 7 47040. 54980. 5655. o
4760 1 -2 3 -7 47040. 54980. 5655. o
4761 1 1 3 7 12443. 12143. 4211. o
4762 1 1 3 -7 12808. 11472. 3845. o
4763 2 8 2 -7 87176. 81829. 6304. o
4763 1 2 3 7 87176. 81829. 6304. o
4764 2 8 2 7 86475. 86954. 6772. o
4764 1 2 3 -7 86475. 86954. 6772. o
4765 1 3 3 7 14452. 15072. 3538. o
4766 1 3 3 -7 14684. 10862. 3787. o
4767 1 4 3 7 20966. 20137. 3540. o
4768 1 4 3 -7 21264. 20869. 3723. o
4769 1 5 3 7 9755. 10984. 3233. o
4770 1 5 3 -7 10112. 8482. 3418. o
4771 2 6 3 -7 122808. 127167. 5772. o
4771 1 6 3 7 122808. 127167. 5772. o
4772 2 6 3 7 122418. 122285. 5554. o
4772 1 6 3 -7 122418. 122285. 5554. o
4773 1 7 3 7 17292. 18428. 3232. o
4774 1 7 3 -7 17242. 15987. 3419. o
4775 1 8 3 7 13048. 15438. 2987. o
4776 1 8 3 -7 13018. 16842. 3046. o
4777 1 9 3 7 24485. 23554. 2870. o
4778 1 9 3 -7 24158. 22517. 2689. o
4779 2 4 4 -7 55058. 58153. 4505. o
4779 1 10 3 7 55058. 58153. 4505. o
4780 2 4 4 7 55565. 59678. 4318. o
4780 1 10 3 -7 55565. 59678. 4318. o
4781 1 11 3 7 88834. 95375. 3307. o
4782 1 11 3 -7 87823. 97084. 2786. o
4783 1 12 3 7 49804. 46254. 3066. o
4784 1 12 3 -7 49704. 50159. 2255. o
4785 1 13 3 7 6415. 7445. 2806. o
4786 1 13 3 -7 6262. 7139. 2074. o
4787 2 2 5 -7 17682. 26727. 5604. o
4787 1 14 3 7 17682. 26727. 5604. o
4788 2 2 5 7 18048. 20991. 2801. o
4788 1 14 3 -7 18048. 20991. 2801. o
4789 1 15 3 7 11755. 9702. 3480. o
4790 1 15 3 -7 11275. 11594. 1769. o
4791 1 16 3 7 54918. 54247. 3481. o
4792 1 16 3 -7 54821. 56627. 1754. o
4793 1 17 3 7 82248. 84941. 3461. o
4794 1 17 3 -7 82302. 82744. 1764. o
4795 1 18 3 7 203346. 209789. 6351. o
4796 1 18 3 -7 203760. 223213. 2865. o
4797 1 19 3 7 14871. 15133. 3234. o
4798 1 19 3 -7 14812. 16109. 1583. o
4799 1 20 3 7 7245. 6041. 3113. <
4800 1 20 3 -7 7389. 10007. 1705. o
4801 1 21 3 7 41567. 42653. 3047. o
4802 1 21 3 -7 41736. 43142. 1699. o
4803 2 -2 7 -7 26263. 34721. 4806. o
4803 1 22 3 7 26263. 34721. 4806. o
4804 2 -2 7 7 26517. 31853. 2608. o
4804 1 22 3 -7 26517. 31853. 2608. o
4805 1 23 3 7 7878. 7689. 3234. o
4806 1 23 3 -7 7670. 9092. 1584. o
4807 1 24 3 7 115. 4760. 3111. <
4808 1 24 3 -7 128. 3783. 1585. o
4809 1 25 3 7 2895. 7811. 3109. o
4810 1 25 3 -7 2938. 1648. 1648. <
4811 2 -4 8 -7 43570. 43020. 4761. o
4811 1 26 3 7 43570. 43020. 4761. o
4812 2 -4 8 7 42897. 49610. 2406. o
4812 1 26 3 -7 42897. 49610. 2406. o
4813 1 27 3 7 9523. 9092. 2868. o
4814 1 27 3 -7 9725. 8848. 1527. o
4815 1 28 3 7 12720. 12753. 2868. o
4816 1 28 3 -7 12741. 12570. 1648. o
4817 1 29 3 7 16670. 18428. 2865. o
4818 1 29 3 -7 16950. 20564. 1698. o
4819 2 -6 9 -7 22467. 25873. 5060. o
4819 1 30 3 7 22467. 25873. 5060. o
4820 2 -6 9 7 22661. 27093. 2612. o
4820 1 30 3 -7 22661. 27093. 2612. o
4821 1 31 3 7 13809. 20808. 3162. o
4822 1 31 3 -7 13799. 16964. 1639. o
4823 1 32 3 7 1217. 12814. 2858. o
4824 1 32 3 -7 1221. 8909. 1640. o
4825 1 33 3 7 8168. 12509. 3169. o
4826 1 33 3 -7 8101. 9763. 1706. o
4827 2 -8 10 -7 27441. 27093. 4272. o
4827 1 34 3 7 27441. 27093. 4272. o
4828 2 -8 10 7 27712. 29107. 2742. o
4828 1 34 3 -7 27712. 29107. 2742. o
4829 2 28 -6 -7 16746. 17757. 3660. o
4829 1 -32 4 7 16746. 17757. 3660. o
4830 2 28 -6 7 17106. 19771. 2435. o
4830 1 -32 4 -7 17106. 19771. 2435. o
4831 2 26 -5 -7 23235. 24164. 3782. o
4831 1 -28 4 7 23235. 24164. 3782. o
4832 2 26 -5 7 22921. 24652. 2192. o
4832 1 -28 4 -7 22921. 24652. 2192. o
4833 2 24 -4 -7 60329. 67916. 4363. o
4833 1 -24 4 7 60329. 67916. 4363. o
4834 2 24 -4 7 59997. 58702. 2449. o
4834 1 -24 4 -7 59997. 58702. 2449. o
4835 2 22 -3 -7 105753. 106481. 4694. o
4835 1 -20 4 7 105753. 106481. 4694. o
4836 2 22 -3 7 106025. 112400. 2614. o
4836 1 -20 4 -7 106025. 112400. 2614. o
4837 2 20 -2 -7 117894. 119967. 4807. o
4837 1 -16 4 7 117894. 119967. 4807. o
4838 2 20 -2 7 116312. 126496. 2621. o
4838 1 -16 4 -7 116312. 126496. 2621. o
4839 2 18 -1 -7 54158. 51806. 3366. o
4839 1 -12 4 7 54158. 51806. 3366. o
4840 2 18 -1 7 53710. 56627. 3527. o
4840 1 -12 4 -7 53710. 56627. 3527. o
4841 2 16 0 -7 139848. 142300. 4372. o
4841 1 -8 4 7 139848. 142300. 4372. o
4842 2 16 0 7 139790. 148097. 3822. o
4842 1 -8 4 -7 139790. 148097. 3822. o
4843 2 14 1 -7 106995. 126130. 4252. o
4843 1 -4 4 7 106995. 126130. 4252. o
4844 2 14 1 7 108048. 122224. 4166. o
4844 1 -4 4 -7 108048. 122224. 4166. o
4845 1 1 4 7 22836. 23981. 3720. o
4846 1 1 4 -7 22869. 23310. 3538. o
4847 1 2 4 7 27567. 27215. 3601. o
4848 1 2 4 -7 27392. 25202. 3665. o
4849 1 3 4 7 639. 854. 3234. <
4850 1 3 4 -7 718. 3112. 3661. <
4851 2 10 3 -7 108056. 98976. 5718. o
4851 1 4 4 7 108056. 98976. 5718. o
4852 2 10 3 7 108761. 120272. 6843. o
4852 1 4 4 -7 108761. 120272. 6843. o
4853 1 5 4 7 1322. 4149. 3111. <
4854 1 5 4 -7 1347. 2014. 3722. <
4855 1 6 4 7 37061. 32951. 3246. o
4856 1 6 4 -7 37347. 34416. 3425. o
4857 1 7 4 7 26706. 27276. 2805. o
4858 1 7 4 -7 26946. 27947. 3293. o
4859 2 8 4 -7 84395. 94765. 4706. o
4859 1 8 4 7 84395. 94765. 4706. o
4860 2 8 4 7 84147. 92263. 4842. o
4860 1 8 4 -7 84147. 92263. 4842. o
4861 1 9 4 7 46347. 46620. 3538. o
4862 1 9 4 -7 46496. 47657. 2802. o
4863 1 10 4 7 30390. 32951. 3105. o
4864 1 10 4 -7 30461. 32402. 2495. o
4865 1 11 4 7 92683. 99098. 3182. o
4866 1 11 4 -7 92697. 99037. 2498. o
4867 2 6 5 -7 26132. 39724. 7060. o
4867 1 12 4 7 26132. 39724. 7060. o
4868 2 6 5 7 25965. 30815. 2916. o
4868 1 12 4 -7 25965. 30815. 2916. o
4869 1 13 4 7 1458. 671. 3966. <
4870 1 13 4 -7 1475. 1770. 2014. <
4871 1 14 4 7 16277. 18428. 3781. o
4872 1 14 4 -7 15934. 18062. 2009. o
4873 1 15 4 7 29351. 27947. 3847. o
4874 1 15 4 -7 29266. 32280. 1878. o
4875 2 4 6 -7 128395. 123872. 6066. o
4875 1 16 4 7 128395. 123872. 6066. o
4876 2 4 6 7 127210. 127777. 3167. o
4876 1 16 4 -7 127210. 127777. 3167. o
4877 1 17 4 7 46608. 48938. 3531. o
4878 1 17 4 -7 47013. 49488. 1875. o
4879 1 18 4 7 16911. 17696. 3355. o
4880 1 18 4 -7 16902. 18855. 1764. o
4881 1 19 4 7 620. 3661. 3478. <
4882 1 19 4 -7 593. 4516. 1646. o
4883 2 2 7 -7 104022. 108678. 5345. o
4883 1 20 4 7 104022. 108678. 5345. o
4884 2 2 7 7 104335. 114841. 2757. o
4884 1 20 4 -7 104335. 114841. 2757. o
4885 1 21 4 7 49997. 47840. 3364. o
4886 1 21 4 -7 49255. 48816. 1773. o
4887 1 22 4 7 28420. 31792. 3226. o
4888 1 22 4 -7 28419. 30876. 1697. o
4889 1 23 4 7 17518. 25507. 3648. o
4890 1 23 4 -7 17178. 19893. 1701. o
4891 1 24 4 7 49743. 52661. 5179. o
4892 1 24 4 -7 49320. 56688. 2769. o
4893 1 25 4 7 13420. 16842. 3107. o
4894 1 25 4 -7 13446. 14218. 1646. o
4895 1 26 4 7 3064. 4027. 2929. <
4896 1 26 4 -7 3135. 2685. 1648. <
4897 1 27 4 7 6074. 6102. 3051. <
4898 1 27 4 -7 5984. 9397. 1765. o
4899 2 -2 9 -7 23496. 21418. 4945. o
4899 1 28 4 7 23496. 21418. 4945. o
4900 2 -2 9 7 23195. 22639. 2503. o
4900 1 28 4 -7 23195. 22639. 2503. o
4901 1 29 4 7 2115. 8421. 3109. o
4902 1 29 4 -7 2155. 5187. 1646. o
4903 1 30 4 7 987. 5431. 3050. <
4904 1 30 4 -7 1020. 4699. 1584. o
4905 1 31 4 7 5250. 5797. 3112. <
4906 1 31 4 -7 5241. 8970. 1582. o
4907 2 -4 10 -7 17288. 20503. 5489. o
4907 1 32 4 7 17288. 20503. 5489. o
4908 2 -4 10 7 17611. 17757. 2685. o
4908 1 32 4 -7 17611. 17757. 2685. o
4909 2 30 -5 -7 88850. 68709. 5144. o
4909 1 -30 5 7 88850. 68709. 5144. o
4910 2 30 -5 7 89079. 74201. 2799. o
4910 1 -30 5 -7 89079. 74201. 2799. o
4911 2 28 -4 -7 11174. 6163. 4518. <
4911 1 -26 5 7 11174. 6163. 4518. <
4912 2 28 -4 7 11318. 14340. 2436. o
4912 1 -26 5 -7 11318. 14340. 2436. o
4913 2 26 -3 -7 31992. 30022. 4275. o
4913 1 -22 5 7 31992. 30022. 4275. o
4914 2 26 -3 7 32578. 32646. 2441. o
4914 1 -22 5 -7 32578. 32646. 2441. o
4915 2 24 -2 -7 26911. 28985. 5062. o
4915 1 -18 5 7 26911. 28985. 5062. o
4916 2 24 -2 7 27026. 25446. 2689. o
4916 1 -18 5 -7 27026. 25446. 2689. o
4917 2 22 -1 -7 54878. 55895. 5245. o
4917 1 -14 5 7 54878. 55895. 5245. o
4918 2 22 -1 7 54434. 56993. 2548. o
4918 1 -14 5 -7 54434. 56993. 2548. o
4919 2 20 0 -7 46850. 45216. 3240. o
4919 1 -10 5 7 46850. 45216. 3240. o
4920 2 20 0 7 46787. 46315. 3175. o
4920 1 -10 5 -7 46787. 46315. 3175. o
4921 2 18 1 -7 47144. 48938. 4083. o
4921 1 -6 5 7 47144. 48938. 4083. o
4922 2 18 1 7 46592. 52356. 4008. o
4922 1 -6 5 -7 46592. 52356. 4008. o
4923 2 16 2 -7 16823. 18672. 4758. o
4923 1 -2 5 7 16823. 18672. 4758. o
4924 2 16 2 7 17703. 20259. 4146. o
4924 1 -2 5 -7 17703. 20259. 4146. o
4925 1 1 5 7 22461. 23371. 3538. o
4926 1 1 5 -7 21905. 18611. 3544. o
4927 2 14 3 -7 12937. 16598. 5184. o
4927 1 2 5 7 12937. 16598. 5184. o
4928 2 14 3 7 13386. 11899. 5554. o
4928 1 2 5 -7 13386. 11899. 5554. o
4929 1 3 5 7 19841. 22883. 3534. o
4930 1 3 5 -7 19745. 19344. 3418. o
4931 1 4 5 7 57161. 57909. 3475. o
4932 1 4 5 -7 57048. 61448. 3642. o
4933 1 5 5 7 116933. 119539. 3700. o
4934 1 5 5 -7 116751. 121980. 3862. o
4935 2 12 4 -7 20673. 20381. 6651. o
4935 1 6 5 7 20673. 20381. 6651. o
4936 2 12 4 7 20379. 29900. 6458. o
4936 1 6 5 -7 20379. 29900. 6458. o
4937 1 7 5 7 27874. 26483. 3359. o
4938 1 7 5 -7 27885. 26788. 3176. o
4939 1 8 5 7 29246. 28558. 3602. o
4940 1 8 5 -7 29598. 29961. 3172. o
4941 1 9 5 7 34320. 31548. 3120. o
4942 1 9 5 -7 34739. 34233. 2870. o
4943 2 10 5 -7 21328. 30205. 7130. o
4943 1 10 5 7 21328. 30205. 7130. o
4944 2 10 5 7 21342. 22334. 3599. o
4944 1 10 5 -7 21342. 22334. 3599. o
4945 1 11 5 7 2679. 7567. 2865. o
4946 1 11 5 -7 2486. 4332. 2257. <
4947 1 12 5 7 6612. 7933. 3661. o
4948 1 12 5 -7 6550. 9275. 2255. o
4949 1 13 5 7 11294. 11899. 4149. o
4950 1 13 5 -7 11290. 10740. 2014. o
4951 2 8 6 -7 65253. 63278. 5986. o
4951 1 14 5 7 65253. 63278. 5986. o
4952 2 8 6 7 64569. 62485. 3610. o
4952 1 14 5 -7 64569. 62485. 3610. o
4953 1 15 5 7 157. -915. 4027. <
4954 1 15 5 -7 108. 2685. 1952. <
4955 1 16 5 7 9685. 7628. 3845. <
4956 1 16 5 -7 9866. 9702. 1953. o
4957 1 17 5 7 7988. 11960. 3597. o
4958 1 17 5 -7 7645. 11655. 1947. o
4959 2 6 7 -7 26157. 25262. 5371. o
4959 1 18 5 7 26157. 25262. 5371. o
4960 2 6 7 7 26301. 25324. 3114. o
4960 1 18 5 -7 26301. 25324. 3114. o
4961 1 19 5 7 32991. 32219. 3785. o
4962 1 19 5 -7 32830. 34782. 1944. o
4963 1 20 5 7 12349. 8848. 3359. o
4964 1 20 5 -7 12130. 14340. 1765. o
4965 1 21 5 7 4520. 6346. 3233. <
4966 1 21 5 -7 4529. 4393. 1709. o
4967 2 4 8 -7 24892. 14889. 5866. o
4967 1 22 5 7 24892. 14889. 5866. o
4968 2 4 8 7 25321. 24469. 2687. o
4968 1 22 5 -7 25321. 24469. 2687. o
4969 1 23 5 7 4555. 7017. 3294. o
4970 1 23 5 -7 4401. 5736. 1769. o
4971 1 24 5 7 31783. 31853. 3417. o
4972 1 24 5 -7 31730. 31060. 1773. o
4973 1 25 5 7 3725. 5614. 3294. <
4974 1 25 5 -7 3695. 6163. 1707. o
4975 2 2 9 -7 8249. 5553. 6164. <
4975 1 26 5 7 8249. 5553. 6164. <
4976 2 2 9 7 8325. 9946. 2744. o
4976 1 26 5 -7 8325. 9946. 2744. o
4977 1 27 5 7 3264. 3112. 3295. <
4978 1 27 5 -7 3118. 5004. 1768. o
4979 1 28 5 7 5559. 5126. 3417. <
4980 1 28 5 -7 5550. 5309. 1831. o
4981 1 29 5 7 21919. 17391. 3241. o
4982 1 29 5 -7 21894. 17818. 1842. o
4983 1 30 5 7 73096. 62058. 5952. o
4984 1 30 5 -7 73388. 75483. 3282. o
4985 1 31 5 7 151. 6468. 3415. <
4986 1 31 5 -7 158. 7445. 1886. o
4987 2 32 -4 -7 7886. 6163. 4455. <
4987 1 -28 6 7 7886. 6163. 4455. <
4988 2 32 -4 7 7619. 9580. 2500. o
4988 1 -28 6 -7 7619. 9580. 2500. o
4989 2 30 -3 -7 8014. 3051. 4456. <
4989 1 -24 6 7 8014. 3051. 4456. <
4990 2 30 -3 7 7847. 9641. 2500. o
4990 1 -24 6 -7 7847. 9641. 2500. o
4991 2 28 -2 -7 4372. 7261. 4209. <
4991 1 -20 6 7 4372. 7261. 4209. <
4992 2 28 -2 7 4453. 7811. 2438. o
4992 1 -20 6 -7 4453. 7811. 2438. o
4993 2 26 -1 -7 20425. 17208. 4824. o
4993 1 -16 6 7 20425. 17208. 4824. o
4994 2 26 -1 7 20124. 22822. 2496. o
4994 1 -16 6 -7 20124. 22822. 2496. o
4995 2 24 0 -7 61992. 50037. 4614. o
4995 1 -12 6 7 61992. 50037. 4614. o
4996 2 24 0 7 62479. 64499. 2672. o
4996 1 -12 6 -7 62479. 64499. 2672. o
4997 2 22 1 -7 121829. 130401. 4016. o
4997 1 -8 6 7 121829. 130401. 4016. o
4998 2 22 1 7 123094. 133818. 4121. o
4998 1 -8 6 -7 123094. 133818. 4121. o
4999 2 20 2 -7 121324. 127655. 5023. o
4999 1 -4 6 7 121324. 127655. 5023. o
5000 2 20 2 7 120065. 120638. 4573. o
5000 1 -4 6 -7 120065. 120638. 4573. o
5001 1 1 6 7 5404. 6102. 3966. <
5002 1 1 6 -7 5618. 5492. 3539. <
5003 1 2 6 7 15600. 15743. 3722. o
5004 1 2 6 -7 15456. 16720. 3599. o
5005 1 3 6 7 95071. 105200. 3896. o
5006 1 3 6 -7 95799. 88297. 3831. o
5007 2 16 4 -7 130872. 132476. 5604. o
5007 1 4 6 7 130872. 132476. 5604. o
5008 2 16 4 7 130078. 117282. 7682. o
5008 1 4 6 -7 130078. 117282. 7682. o
5009 1 5 6 7 32136. 31548. 3358. o
5010 1 5 6 -7 32415. 31243. 3237. o
5011 1 6 6 7 19052. 22272. 3290. o
5012 1 6 6 -7 18966. 22883. 3349. o
5013 1 7 6 7 11184. 13242. 3232. o
5014 1 7 6 -7 11224. 8848. 3297. o
5015 2 14 5 -7 117425. 122224. 7791. o
5015 1 8 6 7 117425. 122224. 7791. o
5016 2 14 5 7 118817. 117282. 7268. o
5016 1 8 6 -7 118817. 117282. 7268. o
5017 1 9 6 7 12245. 9397. 3054. o
5018 1 9 6 -7 11852. 13547. 3049. o
5019 1 10 6 7 26674. 27398. 4636. o
5020 1 10 6 -7 26548. 28314. 2802. o
5021 1 11 6 7 17581. 15926. 4456. o
5022 1 11 6 -7 17306. 19954. 3230. o
5023 2 12 6 -7 16773. 18245. 7260. o
5023 1 12 6 7 16773. 18245. 7260. o
5024 2 12 6 7 16869. 24469. 4934. o
5024 1 12 6 -7 16869. 24469. 4934. o
5025 1 13 6 7 29092. 30205. 4025. o
5026 1 13 6 -7 29134. 30022. 2499. o
5027 1 14 6 7 11858. 9763. 4517. o
5028 1 14 6 -7 11714. 12387. 2318. o
5029 1 15 6 7 19397. 24835. 4141. o
5030 1 15 6 -7 18990. 19710. 2317. o
5031 2 10 7 -7 23687. 34172. 7066. o
5031 1 16 6 7 23687. 34172. 7066. o
5032 2 10 7 7 23320. 24530. 3537. o
5032 1 16 6 -7 23320. 24530. 3537. o
5033 1 17 6 7 1505. -3112. 3905. <
5034 1 17 6 -7 1588. 2563. 2013. <
5035 1 18 6 7 7550. 7750. 3661. o
5036 1 18 6 -7 7557. 6773. 1953. o
5037 1 19 6 7 407. 122. 3844. <
5038 1 19 6 -7 419. -366. 1892. <
5039 2 8 8 -7 6110. 2197. 5676. <
5039 1 20 6 7 6110. 2197. 5676. <
5040 2 8 8 7 6130. 4699. 3052. <
5040 1 20 6 -7 6130. 4699. 3052. <
5041 1 21 6 7 50844. 54552. 3769. o
5042 1 21 6 -7 51515. 56932. 2036. o
5043 1 22 6 7 3143. 10068. 3535. o
5044 1 22 6 -7 3010. 3661. 1891. <
5045 1 23 6 7 37070. 37772. 3781. o
5046 1 23 6 -7 37557. 40884. 2058. o
5047 2 6 9 -7 3975. 3234. 5980. <
5047 1 24 6 7 3975. 3234. 5980. <
5048 2 6 9 7 3845. 7078. 2988. o
5048 1 24 6 -7 3845. 7078. 2988. o
5049 1 25 6 7 11687. 12936. 3660. o
5050 1 25 6 -7 11615. 13547. 1888. o
5051 1 26 6 7 5413. 7750. 3477. o
5052 1 26 6 -7 5243. 8604. 1949. o
5053 1 27 6 7 5530. 5553. 3783. <
5054 1 27 6 -7 5535. 9275. 1949. o
5055 2 4 10 -7 5874. -610. 6408. <
5055 1 28 6 7 5874. -610. 6408. <
5056 2 4 10 7 5681. 8116. 2927. o
5056 1 28 6 -7 5681. 8116. 2927. o
5057 2 32 -2 -7 4380. 7872. 4758. <
5057 1 -22 7 7 4380. 7872. 4758. <
5058 2 32 -2 7 4352. 7139. 3111. o
5058 1 -22 7 -7 4352. 7139. 3111. o
5059 2 30 -1 -7 61401. 59739. 5924. o
5059 1 -18 7 7 61401. 59739. 5924. o
5060 2 30 -1 7 61246. 55102. 2840. o
5060 1 -18 7 -7 61246. 55102. 2840. o
5061 2 28 0 -7 1457. 5004. 4515. <
5061 1 -14 7 7 1457. 5004. 4515. <
5062 2 28 0 7 1528. 122. 2502. <
5062 1 -14 7 -7 1528. 122. 2502. <
5063 2 26 1 -7 20732. 24469. 5366. o
5063 1 -10 7 7 20732. 24469. 5366. o
5064 2 26 1 7 21049. 25934. 2673. o
5064 1 -10 7 -7 21049. 25934. 2673. o
5065 2 24 2 -7 17781. 18611. 4576. o
5065 1 -6 7 7 17781. 18611. 4576. o
5066 2 24 2 7 17726. 15926. 5676. o
5066 1 -6 7 -7 17726. 15926. 5676. o
5067 2 22 3 -7 19967. 21967. 4940. o
5067 1 -2 7 7 19967. 21967. 4940. o
5068 2 22 3 7 19984. 21479. 7382. o
5068 1 -2 7 -7 19984. 21479. 7382. o
5069 1 1 7 7 8673. 10068. 3721. o
5070 1 1 7 -7 8583. 5980. 5188. <
5071 2 20 4 -7 36591. 39602. 6341. o
5071 1 2 7 7 36591. 39602. 6341. o
5072 2 20 4 7 36595. 27947. 7942. o
5072 1 2 7 -7 36595. 27947. 7942. o
5073 1 3 7 7 18006. 16964. 3602. o
5074 1 3 7 -7 18128. 17818. 5065. o
5075 1 4 7 7 8856. 10679. 3294. o
5076 1 4 7 -7 8887. 12143. 4513. o
5077 1 5 7 7 10844. 13547. 3842. o
5078 1 5 7 -7 10543. 10984. 4637. o
5079 2 18 5 -7 18999. 16414. 6165. o
5079 1 6 7 7 18999. 16414. 6165. o
5080 2 18 5 7 18936. 12448. 7448. <
5080 1 6 7 -7 18936. 12448. 7448. <
5081 1 7 7 7 30624. 30083. 4639. o
5082 1 7 7 -7 30182. 29778. 4272. o
5083 1 8 7 7 7169. 6163. 4882. <
5084 1 8 7 -7 7184. 5858. 4089. <
5085 1 9 7 7 1805. 4332. 4393. <
5086 1 9 7 -7 1725. 2624. 2380. <
5087 2 16 6 -7 23779. 33195. 7068. o
5087 1 10 7 7 23779. 33195. 7068. o
5088 2 16 6 7 24161. 26239. 5856. o
5088 1 10 7 -7 24161. 26239. 5856. o
5089 1 11 7 7 3613. 2929. 4272. <
5090 1 11 7 -7 3474. 4455. 2440. <
5091 1 12 7 7 17829. 14950. 4152. o
5092 1 12 7 -7 17813. 18672. 2439. o
5093 1 13 7 7 1292. 7750. 4391. <
5094 1 13 7 -7 1303. 1709. 2441. <
5095 2 14 7 -7 32. 3051. 6407. <
5095 1 14 7 7 32. 3051. 6407. <
5096 2 14 7 7 34. -1342. 4638. <
5096 1 14 7 -7 34. -1342. 4638. <
5097 1 15 7 7 9766. 7261. 4151. <
5098 1 15 7 -7 9487. 9214. 2380. o
5099 1 16 7 7 28646. 27093. 4396. o
5100 1 16 7 -7 28806. 27215. 3664. o
5101 1 17 7 7 72526. 56078. 4756. o
5102 1 17 7 -7 72659. 74018. 3226. o
5103 2 12 8 -7 28942. 19527. 8001. o
5103 1 18 7 7 28942. 19527. 8001. o
5104 2 12 8 7 28923. 33744. 4995. o
5104 1 18 7 -7 28923. 33744. 4995. o
5105 1 19 7 7 13281. 13058. 4028. o
5106 1 19 7 -7 13421. 11350. 2444. o
5107 1 20 7 7 24624. 20991. 4581. o
5108 1 20 7 -7 25001. 24042. 2443. o
5109 1 21 7 7 7993. 6163. 4028. <
5110 1 21 7 -7 8019. 9641. 2561. o
5111 2 10 9 -7 1553. 15255. 7378. o
5111 1 22 7 7 1553. 15255. 7378. o
5112 2 10 9 7 1524. 3112. 3600. <
5112 1 22 7 -7 1524. 3112. 3600. <
5113 1 23 7 7 4045. 4332. 4088. <
5114 1 23 7 -7 3989. 9214. 2437. o
5115 1 24 7 7 6994. 10801. 3842. o
5116 1 24 7 -7 7032. 7384. 2318. o
5117 1 25 7 7 4571. 9763. 3902. o
5118 1 25 7 -7 4592. 7139. 2256. o
5119 2 34 -1 -7 18904. 19893. 4148. o
5119 1 -20 8 7 18904. 19893. 4148. o
5120 2 34 -1 7 19074. 11594. 3364. o
5120 1 -20 8 -7 19074. 11594. 3364. o
5121 2 32 0 -7 19228. 20503. 3904. o
5121 1 -16 8 7 19228. 20503. 3904. o
5122 2 32 0 7 19038. 19954. 3172. o
5122 1 -16 8 -7 19038. 19954. 3172. o
5123 2 30 1 -7 37459. 40396. 3959. o
5123 1 -12 8 7 37459. 40396. 3959. o
5124 2 30 1 7 37326. 34294. 3547. o
5124 1 -12 8 -7 37326. 34294. 3547. o
5125 2 28 2 -7 30150. 29900. 4577. o
5125 1 -8 8 7 30150. 29900. 4577. o
5126 2 28 2 7 30162. 28619. 3177. o
5126 1 -8 8 -7 30162. 28619. 3177. o
5127 2 26 3 -7 16653. 16537. 7994. o
5127 1 -4 8 7 16653. 16537. 7994. o
5128 2 26 3 7 16871. 12204. 6349. <
5128 1 -4 8 -7 16871. 12204. 6349. <
5129 1 1 8 7 17327. 20869. 3717. o
5130 1 1 8 -7 17557. 13302. 5312. o
5131 1 2 8 7 10358. 9458. 3723. o
5132 1 2 8 -7 10100. 9641. 4760. o
5133 1 3 8 7 15235. 16354. 6040. o
5134 1 3 8 -7 14916. 15011. 4882. o
5135 2 22 5 -7 12922. 12326. 5797. o
5135 1 4 8 7 12922. 12326. 5797. o
5136 2 22 5 7 12905. 12753. 7201. <
5136 1 4 8 -7 12905. 12753. 7201. <
5137 1 5 8 7 7968. 10312. 4819. o
5138 1 5 8 -7 8098. 9092. 3355. o
5139 1 6 8 7 17738. 17818. 4332. o
5140 1 6 8 -7 17702. 17086. 3235. o
5141 1 7 8 7 472. 3478. 3783. <
5142 1 7 8 -7 485. 2990. 2990. <
5143 2 20 6 -7 26353. 29656. 6403. o
5143 1 8 8 7 26353. 29656. 6403. o
5144 2 20 6 7 26291. 22883. 6472. o
5144 1 8 8 -7 26291. 22883. 6472. o
5145 1 9 8 7 44835. 48328. 3710. o
5146 1 9 8 -7 45276. 40579. 3311. o
5147 1 10 8 7 2002. 4088. 3356. <
5148 1 10 8 -7 1959. 1953. 2929. <
5149 1 11 8 7 23600. 25446. 3475. o
5150 1 11 8 -7 24103. 21662. 3117. o
5151 2 18 7 -7 10175. 17391. 7135. o
5151 1 12 8 7 10175. 17391. 7135. o
5152 2 18 7 7 10181. 8238. 5188. <
5152 1 12 8 -7 10181. 8238. 5188. <
5153 1 13 8 7 19803. 19832. 3539. o
5154 1 13 8 -7 19704. 24225. 2920. o
5155 1 14 8 7 7553. 9336. 3355. o
5156 1 14 8 -7 7251. 12143. 2863. o
5157 1 15 8 7 36348. 30144. 3797. o
5158 1 15 8 -7 36612. 33195. 3183. o
5159 2 16 8 -7 13763. 8543. 8118. <
5159 1 16 8 7 13763. 8543. 8118. <
5160 2 16 8 7 13650. 7872. 5739. <
5160 1 16 8 -7 13650. 7872. 5739. <
5161 1 17 8 7 12502. 10984. 3724. o
5162 1 17 8 -7 12566. 10984. 2748. o
5163 1 18 8 7 4987. 3722. 3479. <
5164 1 18 8 -7 4954. 6529. 2745. o
5165 1 19 8 7 4059. 9275. 3475. o
5166 1 19 8 -7 4069. 9275. 2620. o
5167 2 14 9 -7 13204. 7872. 7751. <
5167 1 20 8 7 13204. 7872. 7751. <
5168 2 14 9 7 13358. 10618. 4944. o
5168 1 20 8 -7 13358. 10618. 4944. o
5169 1 21 8 7 7191. 7872. 3417. o
5170 1 21 8 -7 7013. 9702. 2621. o
5171 1 22 8 7 11256. 10374. 3479. o
5172 1 22 8 -7 11103. 13364. 2560. o
5173 2 34 1 -7 7042. 7750. 3722. o
5173 1 -14 9 7 7042. 7750. 3722. o
5174 2 34 1 7 7095. 13302. 4145. o
5174 1 -14 9 -7 7095. 13302. 4145. o
5175 2 32 2 -7 7005. 7872. 4942. <
5175 1 -10 9 7 7005. 7872. 4942. <
5176 2 32 2 7 6968. 12143. 3657. o
5176 1 -10 9 -7 6968. 12143. 3657. o
5177 2 30 3 7 7715. 7628. 4027. <
5177 1 -6 9 -7 7715. 7628. 4027. <
5178 2 28 4 7 12442. 9031. 4701. <
5178 1 -2 9 -7 12442. 9031. 4701. <
5179 1 1 9 -7 628. 3112. 4088. <
5180 2 26 5 7 9200. 5736. 8178. <
5180 1 2 9 -7 9200. 5736. 8178. <
5181 1 3 9 -7 4946. 6895. 4149. <
5182 1 4 9 7 39042. 33134. 6538. o
5183 1 4 9 -7 39615. 27642. 4356. o
5184 1 5 9 7 31528. 34904. 6769. o
5185 1 5 9 -7 31509. 27398. 3974. o
5186 2 24 6 -7 3730. 3905. 6834. <
5186 1 6 9 7 3730. 3905. 6834. <
5187 2 24 6 7 3788. 5919. 7200. <
5187 1 6 9 -7 3788. 5919. 7200. <
5188 1 7 9 7 5743. 5797. 5309. <
5189 1 7 9 -7 5903. 4210. 3479. <
5190 1 8 9 7 27002. 23798. 4764. o
5191 1 8 9 -7 27212. 20747. 3672. o
5192 1 9 9 7 18141. 16109. 4457. o
5193 1 9 9 -7 18160. 17452. 3662. o
5194 2 22 7 -7 3624. 6590. 7383. <
5194 1 10 9 7 3624. 6590. 7383. <
5195 2 22 7 7 3583. 6834. 6467. <
5195 1 10 9 -7 3583. 6834. 6467. <
5196 1 11 9 7 4644. 4638. 3783. <
5197 1 11 9 -7 4585. 7384. 3477. o
5198 1 12 9 7 10557. 12448. 3782. o
5199 1 12 9 -7 10574. 11716. 3477. o
5200 1 13 9 7 4456. 6346. 3599. <
5201 1 13 9 -7 4431. 6468. 3355. <
5202 2 20 8 -7 3916. 6956. 7993. <
5202 1 14 9 7 3916. 6956. 7993. <
5203 2 20 8 7 3928. 3844. 6529. <
5203 1 14 9 -7 3928. 3844. 6529. <
5204 1 15 9 7 6772. 9092. 3721. o
5205 1 15 9 -7 6764. 8177. 3477. o
5206 1 16 9 7 2636. 4332. 3722. <
5207 1 16 9 -7 2636. 4393. 3417. <
5208 2 32 4 7 10066. 7872. 4822. <
5208 1 -4 10 -7 10066. 7872. 4822. <
5209 1 1 10 -7 383. 4393. 3966. <
5210 1 2 10 -7 9605. 8482. 3967. o
5211 1 3 10 -7 22575. 18184. 4216. o
5212 2 28 6 7 7643. 7078. 6346. <
5212 1 4 10 -7 7643. 7078. 6346. <
5213 1 5 10 -7 1077. 4271. 4088. <
5214 1 6 10 -7 10093. 10374. 4088. o
5215 1 7 10 -7 7378. 12265. 4146. o
5216 2 0 0 -8 163817. 162437. 7453. o
5216 1 0 0 8 163817. 162437. 7453. o
5217 2 0 0 8 163177. 168600. 9800. o
5217 1 0 0 -8 163177. 168600. 9800. o
5218 1 2 0 8 93262. 87076. 6430. o
5219 1 2 0 -8 94675. 84270. 6506. o
5220 2 -2 1 -8 230061. 236943. 6093. o
5220 1 4 0 8 230061. 236943. 6093. o
5221 2 -2 1 8 225972. 227790. 6268. o
5221 1 4 0 -8 225972. 227790. 6268. o
5222 1 6 0 8 6867. 7384. 4698. <
5223 1 6 0 -8 7195. 7445. 4698. <
5224 2 -4 2 -8 1787000. 1878640. 37355. o
5224 1 8 0 8 1787000. 1878640. 37355. o
5225 2 -4 2 8 1784330. 1903170. 37551. o
5225 1 8 0 -8 1784330. 1903170. 37551. o
5226 1 10 0 8 33987. 35880. 3901. o
5227 1 10 0 -8 34081. 35026. 3903. o
5228 2 -6 3 -8 110513. 100745. 3854. o
5228 1 12 0 8 110513. 100745. 3854. o
5229 2 -6 3 8 109633. 103186. 3951. o
5229 1 12 0 -8 109633. 103186. 3951. o
5230 1 14 0 8 21437. 21601. 3051. o
5231 1 14 0 -8 21558. 25080. 3227. o
5232 2 -8 4 -8 1267550. 1174950. 11155. o
5232 1 16 0 8 1267550. 1174950. 11155. o
5233 2 -8 4 8 1263510. 1291680. 4151. o
5233 1 16 0 -8 1263510. 1291680. 4151. o
5234 1 18 0 8 15282. 21845. 3896. o
5235 1 18 0 -8 15029. 17513. 2069. o
5236 2 -10 5 -8 62655. 63278. 3964. o
5236 1 20 0 8 62655. 63278. 3964. o
5237 2 -10 5 8 62312. 72676. 2171. o
5237 1 20 0 -8 62312. 72676. 2171. o
5238 1 22 0 8 65552. 65536. 4088. o
5239 1 22 0 -8 65982. 69442. 2291. o
5240 2 -12 6 -8 4035. 3905. 3844. <
5240 1 24 0 8 4035. 3905. 3844. <
5241 2 -12 6 8 3955. 6285. 2195. o
5241 1 24 0 -8 3955. 6285. 2195. o
5242 1 26 0 8 17680. 16964. 3540. o
5243 1 26 0 -8 17799. 15072. 2202. o
5244 2 -14 7 -8 41965. 38992. 3792. o
5244 1 28 0 8 41965. 38992. 3792. o
5245 2 -14 7 8 41318. 46864. 2228. o
5245 1 28 0 -8 41318. 46864. 2228. o
5246 1 30 0 8 5139. 13547. 3960. o
5247 1 30 0 -8 5254. 8299. 2133. o
5248 2 -16 8 -8 24717. 14401. 3979. o
5248 1 32 0 8 24717. 14401. 3979. o
5249 2 -16 8 8 24905. 23798. 2261. o
5249 1 32 0 -8 24905. 23798. 2261. o
5250 1 34 0 8 10565. 2075. 4274. <
5251 1 34 0 -8 10472. 8238. 2321. o
5252 2 20 -8 -8 6946. 15987. 3958. o
5252 1 -34 1 8 6946. 15987. 3958. o
5253 2 20 -8 8 7259. 13180. 2311. o
5253 1 -34 1 -8 7259. 13180. 2311. o
5254 2 18 -7 -8 4342. 5065. 3844. <
5254 1 -30 1 8 4342. 5065. 3844. <
5255 2 18 -7 8 4343. 4577. 2014. o
5255 1 -30 1 -8 4343. 4577. 2014. o
5256 2 16 -6 -8 16470. 11899. 3483. o
5256 1 -26 1 8 16470. 11899. 3483. o
5257 2 16 -6 8 16572. 15499. 2138. o
5257 1 -26 1 -8 16572. 15499. 2138. o
5258 2 14 -5 -8 86188. 88297. 3831. o
5258 1 -22 1 8 86188. 88297. 3831. o
5259 2 14 -5 8 88516. 85307. 2411. o
5259 1 -22 1 -8 88516. 85307. 2411. o
5260 2 12 -4 -8 10187. 11777. 3660. o
5260 1 -18 1 8 10187. 11777. 3660. o
5261 2 12 -4 8 10322. 13730. 2069. o
5261 1 -18 1 -8 10322. 13730. 2069. o
5262 2 10 -3 -8 21598. 18489. 3056. o
5262 1 -14 1 8 21598. 18489. 3056. o
5263 2 10 -3 8 21088. 23798. 3107. o
5263 1 -14 1 -8 21088. 23798. 3107. o
5264 2 8 -2 -8 48973. 49793. 3719. o
5264 1 -10 1 8 48973. 49793. 3719. o
5265 2 8 -2 8 51017. 57176. 3636. o
5265 1 -10 1 -8 51017. 57176. 3636. o
5266 2 6 -1 -8 69007. 75788. 4916. o
5266 1 -6 1 8 69007. 75788. 4916. o
5267 2 6 -1 8 69243. 71455. 4934. o
5267 1 -6 1 -8 69243. 71455. 4934. o
5268 2 4 0 -8 99673. 109166. 6488. o
5268 1 -2 1 8 99673. 109166. 6488. o
5269 2 4 0 8 101885. 104406. 6335. o
5269 1 -2 1 -8 101885. 104406. 6335. o
5270 1 0 1 8 15886. 16292. 6529. o
5271 1 0 1 -8 15174. 15865. 6407. o
5272 1 1 1 8 20568. 14340. 4217. o
5273 1 1 1 -8 20956. 15316. 4156. o
5274 2 2 1 -8 65484. 56627. 5882. o
5274 1 2 1 8 65484. 56627. 5882. o
5275 2 2 1 8 66582. 56505. 6615. o
5275 1 2 1 -8 66582. 56505. 6615. o
5276 1 3 1 8 70214. 73957. 4193. o
5277 1 3 1 -8 70628. 71943. 4449. o
5278 1 4 1 8 4705. 4577. 3844. <
5279 1 4 1 -8 4542. 8055. 3904. o
5280 1 5 1 8 23697. 24408. 3660. o
5281 1 5 1 -8 23580. 19527. 3728. o
5282 2 0 2 -8 75745. 76764. 5000. o
5282 1 6 1 8 75745. 76764. 5000. o
5283 2 0 2 8 75907. 76947. 5183. o
5283 1 6 1 -8 75907. 76947. 5183. o
5284 1 7 1 8 4159. 5187. 3112. <
5285 1 7 1 -8 4115. 5065. 3234. <
5286 1 8 1 8 7894. 12997. 3107. o
5287 1 8 1 -8 7733. 9153. 2989. o
5288 1 9 1 8 149520. 150599. 3098. o
5289 1 9 1 -8 149175. 149745. 3166. o
5290 2 -2 3 -8 36681. 38016. 4268. o
5290 1 10 1 8 36681. 38016. 4268. o
5291 2 -2 3 8 38573. 42165. 3956. o
5291 1 10 1 -8 38573. 42165. 3956. o
5292 1 11 1 8 67987. 66757. 2693. o
5293 1 11 1 -8 68341. 67672. 2750. o
5294 1 12 1 8 2892. -183. 2380. <
5295 1 12 1 -8 2903. 3234. 2441. <
5296 1 13 1 8 15972. 15377. 2259. o
5297 1 13 1 -8 16164. 16903. 2378. o
5298 2 -4 4 -8 22913. 25629. 2801. o
5298 1 14 1 8 22913. 25629. 2801. o
5299 2 -4 4 8 23353. 25140. 3353. o
5299 1 14 1 -8 23353. 25140. 3353. o
5300 1 15 1 8 41995. 41128. 2506. o
5301 1 15 1 -8 41906. 48328. 2284. o
5302 1 16 1 8 20369. 18794. 2993. o
5303 1 16 1 -8 20119. 22761. 1822. o
5304 1 17 1 8 8109. 5553. 2808. <
5305 1 17 1 -8 8209. 8970. 1585. o
5306 2 -6 5 -8 24373. 21723. 4214. o
5306 1 18 1 8 24373. 21723. 4214. o
5307 2 -6 5 8 24387. 25324. 2438. o
5307 1 18 1 -8 24387. 25324. 2438. o
5308 1 19 1 8 7342. 10618. 2682. o
5309 1 19 1 -8 7346. 7689. 1708. o
5310 1 20 1 8 3146. 2685. 2685. <
5311 1 20 1 -8 3100. 2502. 1709. <
5312 1 21 1 8 67783. 63156. 2956. o
5313 1 21 1 -8 67885. 72126. 1724. o
5314 2 -8 6 -8 84170. 84452. 4331. o
5314 1 22 1 8 84170. 84452. 4331. o
5315 2 -8 6 8 86390. 93362. 2621. o
5315 1 22 1 -8 86390. 93362. 2621. o
5316 1 23 1 8 56175. 44179. 2981. o
5317 1 23 1 -8 55887. 57909. 1690. o
5318 1 24 1 8 7086. 5126. 2564. <
5319 1 24 1 -8 7097. 8421. 1524. o
5320 1 25 1 8 29453. 25324. 2757. o
5321 1 25 1 -8 29290. 31548. 1575. o
5322 2 -10 7 -8 9974. 15682. 4267. o
5322 1 26 1 8 9974. 15682. 4267. o
5323 2 -10 7 8 10060. 13608. 2314. o
5323 1 26 1 -8 10060. 13608. 2314. o
5324 1 27 1 8 5704. 4638. 2685. <
5325 1 27 1 -8 5685. 5980. 1586. o
5326 1 28 1 8 1986. 183. 2746. <
5327 1 28 1 -8 1948. 5065. 1523. o
5328 1 29 1 8 1504. 2685. 2746. <
5329 1 29 1 -8 1497. 854. 1526. <
5330 2 -12 8 -8 2702. 13608. 4020. o
5330 1 30 1 8 2702. 13608. 4020. o
5331 2 -12 8 8 2680. 3112. 2319. <
5331 1 30 1 -8 2680. 3112. 2319. <
5332 1 31 1 8 3036. 6468. 2683. o
5333 1 31 1 -8 3032. 5980. 1584. o
5334 1 32 1 8 355. 4577. 2806. <
5335 1 32 1 -8 331. 4577. 1584. o
5336 1 33 1 8 13951. 17635. 2740. o
5337 1 33 1 -8 13896. 13913. 1648. o
5338 2 -14 9 -8 6575. 8726. 4148. o
5338 1 34 1 8 6575. 8726. 4148. o
5339 2 -14 9 8 6921. 7933. 2318. o
5339 1 34 1 -8 6921. 7933. 2318. o
5340 1 35 1 8 16786. 15377. 2992. o
5341 1 35 1 -8 16785. 17635. 1706. o
5342 2 22 -7 -8 40487. 37894. 4156. o
5342 1 -32 2 8 40487. 37894. 4156. o
5343 2 22 -7 8 40817. 39663. 2324. o
5343 1 -32 2 -8 40817. 39663. 2324. o
5344 2 20 -6 -8 268482. 253602. 5146. o
5344 1 -28 2 8 268482. 253602. 5146. o
5345 2 20 -6 8 266983. 269345. 2808. o
5345 1 -28 2 -8 266983. 269345. 2808. o
5346 2 18 -5 -8 7395. 9336. 3782. o
5346 1 -24 2 8 7395. 9336. 3782. o
5347 2 18 -5 8 7360. 7139. 2014. o
5347 1 -24 2 -8 7360. 7139. 2014. o
5348 2 16 -4 -8 325685. 309741. 5381. o
5348 1 -20 2 8 325685. 309741. 5381. o
5349 2 16 -4 8 326302. 323409. 3013. o
5349 1 -20 2 -8 326302. 323409. 3013. o
5350 2 14 -3 -8 66286. 62119. 4227. o
5350 1 -16 2 8 66286. 62119. 4227. o
5351 2 14 -3 8 64574. 73774. 2807. o
5351 1 -16 2 -8 64574. 73774. 2807. o
5352 2 12 -2 -8 26852. 26178. 3114. o
5352 1 -12 2 8 26852. 26178. 3114. o
5353 2 12 -2 8 26811. 27764. 3171. o
5353 1 -12 2 -8 26811. 27764. 3171. o
5354 2 10 -1 -8 80761. 78778. 4038. o
5354 1 -8 2 8 80761. 78778. 4038. o
5355 2 10 -1 8 78739. 77130. 4036. o
5355 1 -8 2 -8 78739. 77130. 4036. o
5356 2 8 0 -8 1691200. 1910980. 36664. o
5356 1 -4 2 8 1691200. 1910980. 36664. o
5357 2 8 0 8 1694100. 1804620. 35888. o
5357 1 -4 2 -8 1694100. 1804620. 35888. o
5358 2 6 1 -8 99929. 81646. 5750. o
5358 1 0 2 8 99929. 81646. 5750. o
5359 2 6 1 8 100505. 92080. 6319. o
5359 1 0 2 -8 100505. 92080. 6319. o
5360 1 1 2 8 8881. 11228. 3720. o
5361 1 1 2 -8 8868. 8543. 3844. o
5362 1 2 2 8 10611. 9763. 3784. o
5363 1 2 2 -8 10293. 10740. 3783. o
5364 1 3 2 8 222707. 228400. 4190. o
5365 1 3 2 -8 224666. 214793. 4463. o
5366 2 4 2 -8 1666940. 1654640. 10480. o
5366 1 4 2 8 1666940. 1654640. 10480. o
5367 2 4 2 8 1668860. 1618080. 12324. o
5367 1 4 2 -8 1668860. 1618080. 12324. o
5368 1 5 2 8 56948. 61143. 3520. o
5369 1 5 2 -8 57247. 56993. 3601. o
5370 1 6 2 8 393. -244. 3478. <
5371 1 6 2 -8 412. -366. 3234. <
5372 1 7 2 8 89555. 86344. 3318. o
5373 1 7 2 -8 88024. 89212. 3409. o
5374 2 2 3 -8 76266. 84880. 5150. o
5374 1 8 2 8 76266. 84880. 5150. o
5375 2 2 3 8 74810. 77862. 4563. o
5375 1 8 2 -8 74810. 77862. 4563. o
5376 1 9 2 8 59433. 60349. 2924. o
5377 1 9 2 -8 59481. 56627. 2944. o
5378 1 10 2 8 76786. 78961. 2729. o
5379 1 10 2 -8 77201. 80425. 2721. o
5380 1 11 2 8 14758. 16964. 2559. o
5381 1 11 2 -8 14564. 14401. 2563. o
5382 2 0 4 -8 29675. 28314. 3603. o
5382 1 12 2 8 29675. 28314. 3603. o
5383 2 0 4 8 29766. 34721. 3772. o
5383 1 12 2 -8 29766. 34721. 3772. o
5384 1 13 2 8 4660. 7200. 2256. o
5385 1 13 2 -8 4684. 5492. 2257. o
5386 1 14 2 8 29610. 28375. 2567. o
5387 1 14 2 -8 29515. 30205. 2316. o
5388 1 15 2 8 2421. 4638. 2562. <
5389 1 15 2 -8 2378. 5370. 2012. o
5390 2 -2 5 -8 64370. 68648. 4927. o
5390 1 16 2 8 64370. 68648. 4927. o
5391 2 -2 5 8 62663. 62363. 2687. o
5391 1 16 2 -8 62663. 62363. 2687. o
5392 1 17 2 8 13093. 12387. 2930. o
5393 1 17 2 -8 12682. 15133. 1642. o
5394 1 18 2 8 16142. 12753. 2994. o
5395 1 18 2 -8 16274. 14401. 1591. o
5396 1 19 2 8 15978. 12814. 3116. o
5397 1 19 2 -8 16171. 15926. 1587. o
5398 2 -4 6 -8 296084. 305896. 6033. o
5398 1 20 2 8 296084. 305896. 6033. o
5399 2 -4 6 8 296242. 319931. 2630. o
5399 1 20 2 -8 296242. 319931. 2630. o
5400 1 21 2 8 51474. 51257. 3113. o
5401 1 21 2 -8 51233. 50891. 1711. o
5402 1 22 2 8 14967. 13119. 3114. o
5403 1 22 2 -8 14835. 13791. 1589. o
5404 1 23 2 8 2990. 8360. 2926. o
5405 1 23 2 -8 3024. 4699. 1524. o
5406 2 -6 7 -8 7752. 8970. 4698. <
5406 1 24 2 8 7752. 8970. 4698. <
5407 2 -6 7 8 7715. 9641. 2500. o
5407 1 24 2 -8 7715. 9641. 2500. o
5408 1 25 2 8 3394. 2319. 2990. <
5409 1 25 2 -8 3413. 5980. 1523. o
5410 1 26 2 8 2858. 8421. 2865. o
5411 1 26 2 -8 2839. 2319. 1587. <
5412 1 27 2 8 27020. 28192. 2926. o
5413 1 27 2 -8 26708. 26483. 1588. o
5414 2 -8 8 -8 255923. 256348. 5731. o
5414 1 28 2 8 255923. 256348. 5731. o
5415 2 -8 8 8 254476. 272884. 2729. o
5415 1 28 2 -8 254476. 272884. 2729. o
5416 1 29 2 8 21962. 21052. 3053. o
5417 1 29 2 -8 21992. 22272. 1647. o
5418 1 30 2 8 3033. 6895. 2988. o
5419 1 30 2 -8 2934. 6224. 1584. o
5420 1 31 2 8 4968. 5553. 2746. o
5421 1 31 2 -8 4956. 7811. 1644. o
5422 2 -10 9 -8 41434. 44118. 4692. o
5422 1 32 2 8 41434. 44118. 4692. o
5423 2 -10 9 8 41762. 41189. 2626. o
5423 1 32 2 -8 41762. 41189. 2626. o
5424 1 33 2 8 776. 6041. 2622. o
5425 1 33 2 -8 721. 3295. 1647. <
5426 1 34 2 8 6887. 8665. 2989. o
5427 1 34 2 -8 6932. 10679. 1642. o
5428 2 24 -6 -8 4163. 11289. 3596. o
5428 1 -30 3 8 4163. 11289. 3596. o
5429 2 24 -6 8 4196. 5919. 2074. o
5429 1 -30 3 -8 4196. 5919. 2074. o
5430 2 22 -5 -8 15083. 13791. 4151. o
5430 1 -26 3 8 15083. 13791. 4151. o
5431 2 22 -5 8 14465. 14523. 2197. o
5431 1 -26 3 -8 14465. 14523. 2197. o
5432 2 20 -4 -8 19205. 13424. 3790. o
5432 1 -22 3 8 19205. 13424. 3790. o
5433 2 20 -4 8 19450. 17452. 2262. o
5433 1 -22 3 -8 19450. 17452. 2262. o
5434 2 18 -3 -8 53638. 54186. 4575. o
5434 1 -18 3 8 53638. 54186. 4575. o
5435 2 18 -3 8 53616. 58031. 2413. o
5435 1 -18 3 -8 53616. 58031. 2413. o
5436 2 16 -2 -8 52166. 57298. 3210. o
5436 1 -14 3 8 52166. 57298. 3210. o
5437 2 16 -2 8 52698. 60533. 3073. o
5437 1 -14 3 -8 52698. 60533. 3073. o
5438 2 14 -1 -8 86113. 92690. 3926. o
5438 1 -10 3 8 86113. 92690. 3926. o
5439 2 14 -1 8 88518. 96352. 3978. o
5439 1 -10 3 -8 88518. 96352. 3978. o
5440 2 12 0 -8 37521. 39053. 3962. o
5440 1 -6 3 8 37521. 39053. 3962. o
5441 2 12 0 8 38048. 36368. 3849. o
5441 1 -6 3 -8 38048. 36368. 3849. o
5442 2 10 1 -8 22800. 26910. 5365. o
5442 1 -2 3 8 22800. 26910. 5365. o
5443 2 10 1 8 21489. 27093. 5057. o
5443 1 -2 3 -8 21489. 27093. 5057. o
5444 1 0 3 8 20362. 17086. 5434. o
5445 1 0 3 -8 20157. 21235. 5002. o
5446 1 1 3 8 7646. 10557. 4026. o
5447 1 1 3 -8 7384. 8482. 3844. o
5448 2 8 2 -8 30574. 25446. 5864. o
5448 1 2 3 8 30574. 25446. 5864. o
5449 2 8 2 8 29982. 30693. 5857. o
5449 1 2 3 -8 29982. 30693. 5857. o
5450 1 3 3 8 178647. 191666. 3862. o
5451 1 3 3 -8 177878. 159996. 4394. o
5452 1 4 3 8 78547. 80059. 3652. o
5453 1 4 3 -8 78415. 74079. 3746. o
5454 1 5 3 8 2591. 4332. 3050. <
5455 1 5 3 -8 2508. 2929. 3539. <
5456 2 6 3 -8 17966. 18855. 4637. o
5456 1 6 3 8 17966. 18855. 4637. o
5457 2 6 3 8 18246. 23432. 5425. o
5457 1 6 3 -8 18246. 23432. 5425. o
5458 1 7 3 8 6933. 11106. 3170. o
5459 1 7 3 -8 6881. 6956. 3112. o
5460 1 8 3 8 9240. 12509. 2864. o
5461 1 8 3 -8 9443. 12570. 3109. o
5462 1 9 3 8 20821. 25568. 2857. o
5463 1 9 3 -8 21130. 24408. 2983. o
5464 2 4 4 -8 105719. 114170. 4460. o
5464 1 10 3 8 105719. 114170. 4460. o
5465 2 4 4 8 108558. 110813. 4440. o
5465 1 10 3 -8 108558. 110813. 4440. o
5466 1 11 3 8 6809. 5370. 2686. <
5467 1 11 3 -8 7006. 8909. 2622. o
5468 1 12 3 8 7972. 11472. 2926. o
5469 1 12 3 -8 8026. 5675. 2382. o
5470 1 13 3 8 6067. 8909. 2866. o
5471 1 13 3 -8 6202. 7200. 2440. o
5472 2 2 5 -8 46917. 60899. 5822. o
5472 1 14 3 8 46917. 60899. 5822. o
5473 2 2 5 8 47059. 55285. 2828. o
5473 1 14 3 -8 47059. 55285. 2828. o
5474 1 15 3 8 8488. 12814. 3474. o
5475 1 15 3 -8 8442. 11838. 1887. o
5476 1 16 3 8 1336. -1342. 3478. <
5477 1 16 3 -8 1393. 793. 1892. <
5478 1 17 3 8 42009. 41860. 3418. o
5479 1 17 3 -8 42130. 43874. 1820. o
5480 2 0 6 -8 50338. 42837. 5022. o
5480 1 18 3 8 50338. 42837. 5022. o
5481 2 0 6 8 50350. 55468. 2842. o
5481 1 18 3 -8 50350. 55468. 2842. o
5482 1 19 3 8 7340. 1159. 3480. <
5483 1 19 3 -8 7284. 8421. 1707. o
5484 1 20 3 8 7214. 6773. 3356. o
5485 1 20 3 -8 7228. 10679. 1642. o
5486 1 21 3 8 35575. 29900. 3249. o
5487 1 21 3 -8 35407. 37406. 1697. o
5488 2 -2 7 -8 17181. 26056. 4870. o
5488 1 22 3 8 17181. 26056. 4870. o
5489 2 -2 7 8 17475. 22700. 2429. o
5489 1 22 3 -8 17475. 22700. 2429. o
5490 1 23 3 8 68185. 62546. 3385. o
5491 1 23 3 -8 69065. 70601. 1753. o
5492 1 24 3 8 5801. 10252. 3170. o
5493 1 24 3 -8 5711. 6041. 1647. o
5494 1 25 3 8 19060. 18855. 3112. o
5495 1 25 3 -8 19318. 17635. 1653. o
5496 2 -4 8 -8 19031. 16598. 4579. o
5496 1 26 3 8 19031. 16598. 4579. o
5497 2 -4 8 8 18575. 11899. 2390. o
5497 1 26 3 -8 18575. 11899. 2390. o
5498 1 27 3 8 9394. 7567. 3052. o
5499 1 27 3 -8 9496. 8909. 1587. o
5500 1 28 3 8 16471. 17574. 3049. o
5501 1 28 3 -8 16426. 18245. 1642. o
5502 1 29 3 8 9480. 8482. 3052. o
5503 1 29 3 -8 9456. 12570. 1580. o
5504 2 -6 9 -8 4563. 3661. 4882. <
5504 1 30 3 8 4563. 3661. 4882. <
5505 2 -6 9 8 4615. 5858. 2379. o
5505 1 30 3 -8 4615. 5858. 2379. o
5506 1 31 3 8 1371. 4760. 2928. <
5507 1 31 3 -8 1396. 4882. 1584. o
5508 1 32 3 8 6840. 8726. 3111. o
5509 1 32 3 -8 6839. 9519. 1644. o
5510 1 33 3 8 4586. 4821. 3173. <
5511 1 33 3 -8 4669. 9885. 1641. o
5512 2 28 -6 -8 28357. 17025. 4286. o
5512 1 -32 4 8 28357. 17025. 4286. o
5513 2 28 -6 8 28537. 23493. 2455. o
5513 1 -32 4 -8 28537. 23493. 2455. o
5514 2 26 -5 -8 13073. 16964. 4268. o
5514 1 -28 4 8 13073. 16964. 4268. o
5515 2 26 -5 8 12942. 16109. 2252. o
5515 1 -28 4 -8 12942. 16109. 2252. o
5516 2 24 -4 -8 343. 1648. 4027. <
5516 1 -24 4 8 343. 1648. 4027. <
5517 2 24 -4 8 350. 3539. 2196. <
5517 1 -24 4 -8 350. 3539. 2196. <
5518 2 22 -3 -8 13997. 14035. 4454. o
5518 1 -20 4 8 13997. 14035. 4454. o
5519 2 22 -3 8 14047. 13058. 2564. o
5519 1 -20 4 -8 14047. 13058. 2564. o
5520 2 20 -2 -8 268310. 266782. 5633. o
5520 1 -16 4 8 268310. 266782. 5633. o
5521 2 20 -2 8 267047. 282220. 2797. o
5521 1 -16 4 -8 267047. 282220. 2797. o
5522 2 18 -1 -8 3750. 9580. 3169. o
5522 1 -12 4 8 3750. 9580. 3169. o
5523 2 18 -1 8 3711. 10252. 3108. o
5523 1 -12 4 -8 3711. 10252. 3108. o
5524 2 16 0 -8 834838. 890413. 3591. o
5524 1 -8 4 8 834838. 890413. 3591. o
5525 2 16 0 8 838744. 913845. 946. o
5525 1 -8 4 -8 838744. 913845. 946. o
5526 2 14 1 -8 96401. 104284. 4653. o
5526 1 -4 4 8 96401. 104284. 4653. o
5527 2 14 1 8 94386. 95436. 4510. o
5527 1 -4 4 -8 94386. 95436. 4510. o
5528 2 12 2 -8 40457. 51135. 5774. o
5528 1 0 4 8 40457. 51135. 5774. o
5529 2 12 2 8 39800. 41128. 5489. o
5529 1 0 4 -8 39800. 41128. 5489. o
5530 1 1 4 8 226. 1159. 3539. <
5531 1 1 4 -8 194. 2014. 3539. <
5532 1 2 4 8 53943. 60899. 3508. o
5533 1 2 4 -8 53897. 54064. 3783. o
5534 1 3 4 8 107341. 106542. 3667. o
5535 1 3 4 -8 106533. 108739. 3889. o
5536 2 10 3 -8 114673. 109898. 5578. o
5536 1 4 4 8 114673. 109898. 5578. o
5537 2 10 3 8 112142. 120089. 6061. o
5537 1 4 4 -8 112142. 120089. 6061. o
5538 1 5 4 8 43326. 49488. 3394. o
5539 1 5 4 -8 42300. 46864. 3401. o
5540 1 6 4 8 38142. 40274. 3105. o
5541 1 6 4 -8 37940. 36246. 3666. o
5542 1 7 4 8 103223. 99098. 3147. o
5543 1 7 4 -8 104084. 106237. 3461. o
5544 2 8 4 -8 719760. 700883. 7508. o
5544 1 8 4 8 719760. 700883. 7508. o
5545 2 8 4 8 722266. 779600. 6144. o
5545 1 8 4 -8 722266. 779600. 6144. o
5546 1 9 4 8 382496. 390898. 3546. o
5547 1 9 4 -8 383143. 414330. 2921. o
5548 1 10 4 8 5445. 5980. 3600. <
5549 1 10 4 -8 5547. 6956. 2623. o
5550 1 11 4 8 7970. 7689. 3234. o
5551 1 11 4 -8 7885. 11594. 2253. o
5552 2 6 5 -8 16101. 22883. 6096. o
5552 1 12 4 8 16101. 22883. 6096. o
5553 2 6 5 8 15973. 19344. 2985. o
5553 1 12 4 -8 15973. 19344. 2985. o
5554 1 13 4 8 11062. 13791. 2987. o
5555 1 13 4 -8 11106. 13547. 2132. o
5556 1 14 4 8 14001. 15255. 4209. o
5557 1 14 4 -8 14042. 17330. 2007. o
5558 1 15 4 8 119966. 120333. 4452. o
5559 1 15 4 -8 119742. 127411. 2270. o
5560 2 4 6 -8 222888. 229132. 6409. o
5560 1 16 4 8 222888. 229132. 6409. o
5561 2 4 6 8 221499. 229316. 3530. o
5561 1 16 4 -8 221499. 229316. 3530. o
5562 1 17 4 8 98138. 102332. 3692. o
5563 1 17 4 -8 98002. 104650. 1921. o
5564 1 18 4 8 2288. 5431. 3538. <
5565 1 18 4 -8 2324. 4332. 1707. o
5566 1 19 4 8 35268. 39175. 3406. o
5567 1 19 4 -8 34815. 33866. 2018. o
5568 2 2 7 -8 10516. 5126. 4884. <
5568 1 20 4 8 10516. 5126. 4884. <
5569 2 2 7 8 10649. 15865. 3045. o
5569 1 20 4 -8 10649. 15865. 3045. o
5570 1 21 4 8 24478. 24408. 3478. o
5571 1 21 4 -8 24686. 23249. 1775. o
5572 1 22 4 8 30952. 26422. 3427. o
5573 1 22 4 -8 30911. 30815. 1831. o
5574 1 23 4 8 4903. 7567. 3355. o
5575 1 23 4 -8 4949. 6712. 1646. o
5576 2 0 8 -8 1098. 5004. 5430. <
5576 1 24 4 8 1098. 5004. 5430. <
5577 2 0 8 8 1104. 976. 2380. <
5577 1 24 4 -8 1104. 976. 2380. <
5578 1 25 4 8 600. 488. 3112. <
5579 1 25 4 -8 571. 3234. 1708. <
5580 1 26 4 8 1543. 3356. 3112. <
5581 1 26 4 -8 1527. 5858. 1644. o
5582 1 27 4 8 7962. 10007. 3233. o
5583 1 27 4 -8 8005. 8909. 1646. o
5584 2 -2 9 -8 11367. 8909. 5127. <
5584 1 28 4 8 11367. 8909. 5127. <
5585 2 -2 9 8 11222. 16537. 2861. o
5585 1 28 4 -8 11222. 16537. 2861. o
5586 1 29 4 8 2320. 2502. 3173. <
5587 1 29 4 -8 2193. 4271. 1707. o
5588 1 30 4 8 6374. 8482. 3111. o
5589 1 30 4 -8 6349. 9763. 1765. o
5590 1 31 4 8 3162. 6651. 2988. o
5591 1 31 4 -8 3285. 7750. 1704. o
5592 2 -4 10 -8 24291. 21601. 5983. o
5592 1 32 4 8 24291. 21601. 5983. o
5593 2 -4 10 8 24418. 22090. 2751. o
5593 1 32 4 -8 24418. 22090. 2751. o
5594 2 30 -5 -8 2011. 9458. 4390. o
5594 1 -30 5 8 2011. 9458. 4390. o
5595 2 30 -5 8 1979. 7200. 2377. o
5595 1 -30 5 -8 1979. 7200. 2377. o
5596 2 28 -4 -8 13718. 20991. 4446. o
5596 1 -26 5 8 13718. 20991. 4446. o
5597 2 28 -4 8 13624. 13424. 2441. o
5597 1 -26 5 -8 13624. 13424. 2441. o
5598 2 26 -3 -8 24362. 25568. 4331. o
5598 1 -22 5 8 24362. 25568. 4331. o
5599 2 26 -3 8 25130. 29351. 2367. o
5599 1 -22 5 -8 25130. 29351. 2367. o
5600 2 24 -2 -8 4094. 2624. 4699. <
5600 1 -18 5 8 4094. 2624. 4699. <
5601 2 24 -2 8 4085. 7261. 2622. o
5601 1 -18 5 -8 4085. 7261. 2622. o
5602 2 22 -1 -8 45570. 49488. 5483. o
5602 1 -14 5 8 45570. 49488. 5483. o
5603 2 22 -1 8 44062. 47596. 3404. o
5603 1 -14 5 -8 44062. 47596. 3404. o
5604 2 20 0 -8 14426. 15499. 3416. o
5604 1 -10 5 8 14426. 15499. 3416. o
5605 2 20 0 8 14482. 17940. 3229. o
5605 1 -10 5 -8 14482. 17940. 3229. o
5606 2 18 1 -8 68932. 75727. 4117. o
5606 1 -6 5 8 68932. 75727. 4117. o
5607 2 18 1 8 69448. 72614. 3583. o
5607 1 -6 5 -8 69448. 72614. 3583. o
5608 2 16 2 -8 43080. 47657. 4564. o
5608 1 -2 5 8 43080. 47657. 4564. o
5609 2 16 2 8 43580. 43264. 4211. o
5609 1 -2 5 -8 43580. 43264. 4211. o
5610 1 0 5 8 26548. 27459. 5002. o
5611 1 0 5 -8 27080. 28314. 4330. o
5612 1 1 5 8 51123. 48633. 3427. o
5613 1 1 5 -8 51602. 47230. 3312. o
5614 2 14 3 -8 39761. 45277. 4440. o
5614 1 2 5 8 39761. 45277. 4440. o
5615 2 14 3 8 39866. 35880. 5377. o
5615 1 2 5 -8 39866. 35880. 5377. o
5616 1 3 5 8 25937. 33744. 3275. o
5617 1 3 5 -8 25901. 26971. 3110. o
5618 1 4 5 8 2492. 5187. 3050. <
5619 1 4 5 -8 2561. 8482. 3353. o
5620 1 5 5 8 41504. 41799. 3050. o
5621 1 5 5 -8 41733. 45399. 3466. o
5622 2 12 4 -8 67148. 66329. 4824. o
5622 1 6 5 8 67148. 66329. 4824. o
5623 2 12 4 8 67695. 71699. 5723. o
5623 1 6 5 -8 67695. 71699. 5723. o
5624 1 7 5 8 18087. 18001. 3295. o
5625 1 7 5 -8 18103. 16537. 3236. o
5626 1 8 5 8 52990. 55590. 3467. o
5627 1 8 5 -8 52934. 46620. 2896. o
5628 1 9 5 8 2908. 4882. 2806. <
5629 1 9 5 -8 2896. 3844. 2624. <
5630 2 10 5 -8 1417. 5675. 6589. <
5630 1 10 5 8 1417. 5675. 6589. <
5631 2 10 5 8 1404. 3295. 3600. <
5631 1 10 5 -8 1404. 3295. 3600. <
5632 1 11 5 8 14093. 11716. 3115. o
5633 1 11 5 -8 14366. 14279. 2380. o
5634 1 12 5 8 16128. 15499. 2930. o
5635 1 12 5 -8 16239. 17269. 2378. o
5636 1 13 5 8 14895. 13974. 4089. o
5637 1 13 5 -8 14426. 18733. 2433. o
5638 2 8 6 -8 31696. 26727. 5742. o
5638 1 14 5 8 31696. 26727. 5742. o
5639 2 8 6 8 30757. 28863. 3422. o
5639 1 14 5 -8 30757. 28863. 3422. o
5640 1 15 5 8 67794. 65719. 3976. o
5641 1 15 5 -8 68034. 69686. 2121. o
5642 1 16 5 8 79951. 81035. 3960. o
5643 1 16 5 -8 80277. 85185. 2146. o
5644 1 17 5 8 2507. 5858. 3416. <
5645 1 17 5 -8 2455. 6163. 1950. o
5646 2 6 7 -8 3560. 16354. 5790. o
5646 1 18 5 8 3560. 16354. 5790. o
5647 2 6 7 8 3544. 3966. 2990. <
5647 1 18 5 -8 3544. 3966. 2990. <
5648 1 19 5 8 6891. 13364. 3595. o
5649 1 19 5 -8 6960. 8787. 1890. o
5650 1 20 5 8 12888. 12753. 3722. o
5651 1 20 5 -8 12957. 13730. 1768. o
5652 1 21 5 8 3859. 7689. 3354. o
5653 1 21 5 -8 4042. 5736. 1768. o
5654 2 4 8 -8 31158. 19649. 5505. o
5654 1 22 5 8 31158. 19649. 5505. o
5655 2 4 8 8 31842. 24896. 2764. o
5655 1 22 5 -8 31842. 24896. 2764. o
5656 1 23 5 8 4113. 2929. 3295. <
5657 1 23 5 -8 3876. 5553. 1768. o
5658 1 24 5 8 18161. 15377. 3665. o
5659 1 24 5 -8 18103. 19710. 1887. o
5660 1 25 5 8 347. 6041. 3660. <
5661 1 25 5 -8 353. 5431. 1706. o
5662 2 2 9 -8 12203. 14584. 5002. o
5662 1 26 5 8 12203. 14584. 5002. o
5663 2 2 9 8 12088. 13119. 2500. o
5663 1 26 5 -8 12088. 13119. 2500. o
5664 1 27 5 8 17881. 22028. 3288. o
5665 1 27 5 -8 17730. 20869. 1822. o
5666 1 28 5 8 3348. 5614. 3477. <
5667 1 28 5 -8 3363. 7567. 1766. o
5668 1 29 5 8 26600. 18611. 3309. o
5669 1 29 5 -8 26534. 28680. 1883. o
5670 2 0 10 -8 3543. 5858. 4820. <
5670 1 30 5 8 3543. 5858. 4820. <
5671 2 0 10 8 3492. 4699. 2684. <
5671 1 30 5 -8 3492. 4699. 2684. <
5672 2 32 -4 -8 27530. 10801. 4775. o
5672 1 -28 6 8 27530. 10801. 4775. o
5673 2 32 -4 8 27243. 23493. 2572. o
5673 1 -28 6 -8 27243. 23493. 2572. o
5674 2 30 -3 -8 4659. 7139. 4454. <
5674 1 -24 6 8 4659. 7139. 4454. <
5675 2 30 -3 8 4685. 9458. 2559. o
5675 1 -24 6 -8 4685. 9458. 2559. o
5676 2 28 -2 -8 132507. 129608. 5571. o
5676 1 -20 6 8 132507. 129608. 5571. o
5677 2 28 -2 8 133387. 120211. 3075. o
5677 1 -20 6 -8 133387. 120211. 3075. o
5678 2 26 -1 -8 37842. 36978. 4517. o
5678 1 -16 6 8 37842. 36978. 4517. o
5679 2 26 -1 8 37690. 45155. 2530. o
5679 1 -16 6 -8 37690. 45155. 2530. o
5680 2 24 0 -8 6275. 7628. 4515. <
5680 1 -12 6 8 6275. 7628. 4515. <
5681 2 24 0 8 6345. 5248. 2930. <
5681 1 -12 6 -8 6345. 5248. 2930. <
5682 2 22 1 -8 35610. 32951. 3790. o
5682 1 -8 6 8 35610. 32951. 3790. o
5683 2 22 1 8 34607. 33988. 3785. o
5683 1 -8 6 -8 34607. 33988. 3785. o
5684 2 20 2 -8 128119. 146205. 5180. o
5684 1 -4 6 8 128119. 146205. 5180. o
5685 2 20 2 8 128975. 133452. 4481. o
5685 1 -4 6 -8 128975. 133452. 4481. o
5686 2 18 3 -8 38229. 38260. 4821. o
5686 1 0 6 8 38229. 38260. 4821. o
5687 2 18 3 8 38055. 37162. 4883. o
5687 1 0 6 -8 38055. 37162. 4883. o
5688 1 1 6 8 6636. 8482. 3416. o
5689 1 1 6 -8 6526. 6407. 3295. <
5690 1 2 6 8 12857. 12936. 3417. o
5691 1 2 6 -8 12862. 13974. 3416. o
5692 1 3 6 8 187848. 207592. 4016. o
5693 1 3 6 -8 189234. 173177. 4447. o
5694 2 16 4 -8 112274. 130401. 6746. o
5694 1 4 6 8 112274. 130401. 6746. o
5695 2 16 4 8 113461. 100318. 6948. o
5695 1 4 6 -8 113461. 100318. 6948. o
5696 1 5 6 8 82139. 90616. 3792. o
5697 1 5 6 -8 82156. 75483. 3759. o
5698 1 6 6 8 16381. 16048. 3479. o
5699 1 6 6 -8 16185. 16537. 3356. o
5700 1 7 6 8 11931. 10252. 3175. o
5701 1 7 6 -8 11379. 9763. 3296. o
5702 2 14 5 -8 23773. 22212. 7141. o
5702 1 8 6 8 23773. 22212. 7141. o
5703 2 14 5 8 23444. 24103. 6651. o
5703 1 8 6 -8 23444. 24103. 6651. o
5704 1 9 6 8 113839. 107945. 3708. o
5705 1 9 6 -8 112690. 121858. 4265. o
5706 1 10 6 8 76636. 76581. 3173. o
5707 1 10 6 -8 76061. 80852. 3695. o
5708 1 11 6 8 1719. 1098. 3661. <
5709 1 11 6 -8 1788. 1953. 3295. <
5710 2 12 6 -8 6927. 10557. 6772. <
5710 1 12 6 8 6927. 10557. 6772. <
5711 2 12 6 8 6971. 8909. 4393. o
5711 1 12 6 -8 6971. 8909. 4393. o
5712 1 13 6 8 4948. 5736. 4271. <
5713 1 13 6 -8 5071. 3722. 2319. <
5714 1 14 6 8 9582. 13974. 4146. o
5715 1 14 6 -8 9630. 11472. 2378. o
5716 1 15 6 8 14176. 11899. 4090. o
5717 1 15 6 -8 13812. 13180. 2198. o
5718 2 10 7 -8 37199. 42348. 6398. o
5718 1 16 6 8 37199. 42348. 6398. o
5719 2 10 7 8 37076. 44057. 3394. o
5719 1 16 6 -8 37076. 44057. 3394. o
5720 1 17 6 8 2413. 1526. 3661. <
5721 1 17 6 -8 2598. 3844. 2074. <
5722 1 18 6 8 20836. 20259. 3601. o
5723 1 18 6 -8 20917. 20381. 2076. o
5724 1 19 6 8 21682. 24103. 3901. o
5725 1 19 6 -8 22008. 25934. 1939. o
5726 2 8 8 -8 83721. 90372. 6015. o
5726 1 20 6 8 83721. 90372. 6015. o
5727 2 8 8 8 84234. 88419. 3512. o
5727 1 20 6 -8 84234. 88419. 3512. o
5728 1 21 6 8 70248. 75483. 4186. o
5729 1 21 6 -8 70214. 73347. 2169. o
5730 1 22 6 8 25928. 23859. 3604. o
5731 1 22 6 -8 25731. 30998. 1932. o
5732 1 23 6 8 4469. 5614. 3783. <
5733 1 23 6 -8 4336. 8787. 1948. o
5734 2 6 9 -8 5197. 12265. 5488. o
5734 1 24 6 8 5197. 12265. 5488. o
5735 2 6 9 8 5243. 8360. 2927. o
5735 1 24 6 -8 5243. 8360. 2927. o
5736 1 25 6 8 948. 5126. 3538. <
5737 1 25 6 -8 983. 6346. 1888. o
5738 1 26 6 8 5501. 6712. 3417. <
5739 1 26 6 -8 5580. 6773. 1891. o
5740 1 27 6 8 18854. 17208. 3907. o
5741 1 27 6 -8 18802. 19771. 2011. o
5742 2 4 10 -8 23159. 23920. 6651. o
5742 1 28 6 8 23159. 23920. 6651. o
5743 2 4 10 8 22901. 20442. 2934. o
5743 1 28 6 -8 22901. 20442. 2934. o
5744 2 32 -2 -8 9634. 13424. 4208. o
5744 1 -22 7 8 9634. 13424. 4208. o
5745 2 32 -2 8 9617. 11777. 2499. o
5745 1 -22 7 -8 9617. 11777. 2499. o
5746 2 30 -1 -8 14866. 11777. 4762. o
5746 1 -18 7 8 14866. 11777. 4762. o
5747 2 30 -1 8 14808. 19100. 2739. o
5747 1 -18 7 -8 14808. 19100. 2739. o
5748 2 28 0 -8 14939. 7933. 4154. <
5748 1 -14 7 8 14939. 7933. 4154. <
5749 2 28 0 8 14872. 14218. 2686. o
5749 1 -14 7 -8 14872. 14218. 2686. o
5750 2 26 1 -8 7673. 4516. 5798. <
5750 1 -10 7 8 7673. 4516. 5798. <
5751 2 26 1 8 7590. 8177. 2440. o
5751 1 -10 7 -8 7590. 8177. 2440. o
5752 2 24 2 -8 5729. 7139. 4393. <
5752 1 -6 7 8 5729. 7139. 4393. <
5753 2 24 2 8 5734. 7261. 3844. <
5753 1 -6 7 -8 5734. 7261. 3844. <
5754 2 22 3 -8 4773. 6285. 5186. <
5754 1 -2 7 8 4773. 6285. 5186. <
5755 2 22 3 8 4598. 3539. 6834. <
5755 1 -2 7 -8 4598. 3539. 6834. <
5756 1 0 7 8 2947. 7261. 5124. <
5757 1 0 7 -8 3168. 3356. 7444. <
5758 1 1 7 8 13535. 15133. 3843. o
5759 1 1 7 -8 13060. 7933. 5311. <
5760 2 20 4 -8 3325. -2929. 5125. <
5760 1 2 7 8 3325. -2929. 5125. <
5761 2 20 4 8 3185. 1587. 7445. <
5761 1 2 7 -8 3185. 1587. 7445. <
5762 1 3 7 8 13985. 13547. 3906. o
5763 1 3 7 -8 14488. 10312. 4457. o
5764 1 4 7 8 65947. 73164. 4116. o
5765 1 4 7 -8 66328. 57054. 4004. o
5766 1 5 7 8 10309. 12448. 3720. o
5767 1 5 7 -8 10300. 9641. 3601. o
5768 2 18 5 -8 4840. 122. 6224. <
5768 1 6 7 8 4840. 122. 6224. <
5769 2 18 5 8 4840. 8726. 6772. <
5769 1 6 7 -8 4840. 8726. 6772. <
5770 1 7 7 8 11506. 13242. 3293. o
5771 1 7 7 -8 11379. 14401. 3292. o
5772 1 8 7 8 9213. 10801. 3233. o
5773 1 8 7 -8 9205. 10312. 3233. o
5774 1 9 7 8 671. 1159. 4393. <
5775 1 9 7 -8 575. 3356. 2989. <
5776 2 16 6 -8 13474. 12570. 6774. <
5776 1 10 7 8 13474. 12570. 6774. <
5777 2 16 6 8 13434. 2624. 5800. <
5777 1 10 7 -8 13434. 2624. 5800. <
5778 1 11 7 8 25380. 18184. 4524. o
5779 1 11 7 -8 25406. 27886. 2433. o
5780 1 12 7 8 7151. 5736. 4211. <
5781 1 12 7 -8 7056. 8421. 2256. o
5782 1 13 7 8 11282. 12997. 4331. o
5783 1 13 7 -8 11290. 12265. 2317. o
5784 2 14 7 -8 7767. 15255. 6770. o
5784 1 14 7 8 7767. 15255. 6770. o
5785 2 14 7 8 7599. 3234. 5127. <
5785 1 14 7 -8 7599. 3234. 5127. <
5786 1 15 7 8 26566. 21357. 4157. o
5787 1 15 7 -8 26609. 30632. 2367. o
5788 1 16 7 8 4331. 4577. 4454. <
5789 1 16 7 -8 4482. 4882. 3112. <
5790 1 17 7 8 21080. 20747. 4272. o
5791 1 17 7 -8 21136. 20320. 2870. o
5792 2 12 8 -8 16103. 12875. 7019. <
5792 1 18 7 8 16103. 12875. 7019. <
5793 2 12 8 8 16032. 14828. 4578. o
5793 1 18 7 -8 16032. 14828. 4578. o
5794 1 19 7 8 11409. 12082. 4332. o
5795 1 19 7 -8 11268. 11533. 2502. o
5796 1 20 7 8 14383. 11960. 4578. o
5797 1 20 7 -8 14211. 13119. 2442. o
5798 1 21 7 8 19557. 21296. 4147. o
5799 1 21 7 -8 19474. 20381. 2378. o
5800 2 10 9 -8 2129. 8970. 7199. <
5800 1 22 7 8 2129. 8970. 7199. <
5801 2 10 9 8 2170. 4516. 3844. <
5801 1 22 7 -8 2170. 4516. 3844. <
5802 1 23 7 8 7718. 8604. 3722. o
5803 1 23 7 -8 7891. 13364. 2128. o
5804 1 24 7 8 33055. 27337. 4160. o
5805 1 24 7 -8 33424. 29229. 2212. o
5806 1 25 7 8 12547. 13424. 4271. o
5807 1 25 7 -8 12302. 12814. 2074. o
5808 2 34 -1 -8 4782. 12265. 3778. o
5808 1 -20 8 8 4782. 12265. 3778. o
5809 2 34 -1 8 4809. 10434. 2863. o
5809 1 -20 8 -8 4809. 10434. 2863. o
5810 2 32 0 -8 8369. 9885. 5369. <
5810 1 -16 8 8 8369. 9885. 5369. <
5811 2 32 0 8 8283. 7506. 3235. o
5811 1 -16 8 -8 8283. 7506. 3235. o
5812 2 30 1 -8 7122. 6102. 3723. <
5812 1 -12 8 8 7122. 6102. 3723. <
5813 2 30 1 8 7171. 7384. 3356. o
5813 1 -12 8 -8 7171. 7384. 3356. o
5814 2 28 2 -8 74223. 75483. 5060. o
5814 1 -8 8 8 74223. 75483. 5060. o
5815 2 28 2 8 74858. 62790. 3840. o
5815 1 -8 8 -8 74858. 62790. 3840. o
5816 2 26 3 -8 43197. 41860. 5312. o
5816 1 -4 8 8 43197. 41860. 5312. o
5817 2 26 3 8 43213. 33988. 6360. o
5817 1 -4 8 -8 43213. 33988. 6360. o
5818 2 24 4 -8 3825. 6102. 5003. <
5818 1 0 8 8 3825. 6102. 5003. <
5819 2 24 4 8 3836. 3173. 6773. <
5819 1 0 8 -8 3836. 3173. 6773. <
5820 1 1 8 8 15776. 13486. 3542. o
5821 1 1 8 -8 15838. 13119. 4884. o
5822 1 2 8 8 14113. 14279. 3539. o
5823 1 2 8 -8 14002. 10068. 5128. <
5824 1 3 8 8 52114. 54369. 3836. o
5825 1 3 8 -8 51131. 41921. 5086. o
5826 2 22 5 -8 46038. 50586. 5909. o
5826 1 4 8 8 46038. 50586. 5909. o
5827 2 22 5 8 45810. 38748. 7394. o
5827 1 4 8 -8 45810. 38748. 7394. o
5828 1 5 8 8 2781. 1464. 4516. <
5829 1 5 8 -8 2904. 671. 4577. <
5830 1 6 8 8 15850. 15499. 4272. o
5831 1 6 8 -8 15929. 10374. 4398. o
5832 1 7 8 8 46524. 52051. 4132. o
5833 1 7 8 -8 46829. 38382. 3505. o
5834 2 20 6 -8 38083. 35209. 6290. o
5834 1 8 8 8 38083. 35209. 6290. o
5835 2 20 6 8 38300. 19527. 6914. o
5835 1 8 8 -8 38300. 19527. 6914. o
5836 1 9 8 8 72956. 76215. 3950. o
5837 1 9 8 -8 73608. 73469. 3967. o
5838 1 10 8 8 36628. 36246. 3601. o
5839 1 10 8 -8 36399. 31670. 3126. o
5840 1 11 8 8 6682. 8177. 3355. o
5841 1 11 8 -8 6553. 6041. 3051. <
5842 2 18 7 -8 9989. 4760. 7507. <
5842 1 12 8 8 9989. 4760. 7507. <
5843 2 18 7 8 10049. 7322. 5981. <
5843 1 12 8 -8 10049. 7322. 5981. <
5844 1 13 8 8 7682. 10679. 3354. o
5845 1 13 8 -8 7833. 7994. 2990. o
5846 1 14 8 8 8176. 6651. 4394. <
5847 1 14 8 -8 8200. 10190. 2866. o
5848 1 15 8 8 17788. 10374. 4826. o
5849 1 15 8 -8 18010. 15743. 2932. o
5850 2 16 8 -8 3900. 4943. 8299. <
5850 1 16 8 8 3900. 4943. 8299. <
5851 2 16 8 8 3862. 6407. 5735. <
5851 1 16 8 -8 3862. 6407. 5735. <
5852 1 17 8 8 21937. 18001. 4520. o
5853 1 17 8 -8 21805. 22334. 2745. o
5854 1 18 8 8 9549. 8238. 4333. <
5855 1 18 8 -8 9545. 8726. 2625. o
5856 1 19 8 8 3762. 8543. 3476. o
5857 1 19 8 -8 3791. 6895. 2744. o
5858 2 14 9 -8 3773. 6163. 7444. <
5858 1 20 8 8 3773. 6163. 7444. <
5859 2 14 9 8 3882. 5858. 5064. <
5859 1 20 8 -8 3882. 5858. 5064. <
5860 1 21 8 8 9612. 10496. 3539. o
5861 1 21 8 -8 9412. 10496. 2623. o
5862 2 34 1 -8 3208. 4516. 3783. <
5862 1 -14 9 8 3208. 4516. 3783. <
5863 2 34 1 8 3086. 9824. 4513. o
5863 1 -14 9 -8 3086. 9824. 4513. o
5864 2 32 2 -8 13958. 12265. 5249. o
5864 1 -10 9 8 13958. 12265. 5249. o
5865 2 32 2 8 13947. 11289. 3969. o
5865 1 -10 9 -8 13947. 11289. 3969. o
5866 2 30 3 -8 6571. 6102. 9763. <
5866 1 -6 9 8 6571. 6102. 9763. <
5867 2 30 3 8 6511. 7445. 4027. <
5867 1 -6 9 -8 6511. 7445. 4027. <
5868 2 28 4 8 5642. 5492. 7445. <
5868 1 -2 9 -8 5642. 5492. 7445. <
5869 1 0 9 -8 19484. 14950. 7874. <
5870 1 1 9 8 16612. 18611. 5734. o
5871 1 1 9 -8 16605. 7750. 5375. <
5872 2 26 5 -8 5857. 5980. 5675. <
5872 1 2 9 8 5857. 5980. 5675. <
5873 2 26 5 8 5825. 5675. 7506. <
5873 1 2 9 -8 5825. 5675. 7506. <
5874 1 3 9 8 3524. 7445. 5735. <
5875 1 3 9 -8 3510. 4943. 3966. <
5876 1 4 9 8 101. 5187. 6345. <
5877 1 4 9 -8 95. 3966. 3783. <
5878 1 5 9 8 3778. 1648. 6468. <
5879 1 5 9 -8 3688. 3051. 3661. <
5880 2 24 6 -8 6710. 3356. 6469. <
5880 1 6 9 8 6710. 3356. 6469. <
5881 2 24 6 8 6651. 5431. 7506. <
5881 1 6 9 -8 6651. 5431. 7506. <
5882 1 7 9 8 4095. 5126. 5064. <
5883 1 7 9 -8 4023. 7506. 3660. o
5884 1 8 9 8 6629. 6956. 4637. <
5885 1 8 9 -8 6628. 7200. 3539. o
5886 1 9 9 8 24046. 21357. 4519. o
5887 1 9 9 -8 23909. 18367. 3608. o
5888 2 22 7 -8 5545. 9641. 7321. <
5888 1 10 9 8 5545. 9641. 7321. <
5889 2 22 7 8 5595. 7811. 6468. <
5889 1 10 9 -8 5595. 7811. 6468. <
5890 1 11 9 8 3478. 5980. 3660. <
5891 1 11 9 -8 3410. 7261. 3354. o
5892 1 12 9 8 7533. 9885. 3721. o
5893 1 12 9 -8 7649. 8055. 3234. o
5894 1 13 9 8 8326. 10129. 3538. o
5895 1 13 9 -8 8111. 5980. 3357. <
5896 2 20 8 -8 2569. 5736. 7322. <
5896 1 14 9 8 2569. 5736. 7322. <
5897 2 20 8 8 2497. 2685. 5492. <
5897 1 14 9 -8 2497. 2685. 5492. <
5898 1 15 9 8 2543. 4210. 3722. <
5899 1 15 9 -8 2543. 7689. 3415. o
5900 2 32 4 8 8291. 7933. 4455. <
5900 1 -4 10 -8 8291. 7933. 4455. <
5901 2 30 5 8 9034. 10984. 5125. o
5901 1 0 10 -8 9034. 10984. 5125. o
5902 1 1 10 -8 3046. 5614. 3660. <
5903 1 2 10 -8 14466. 11899. 3786. o
5904 1 3 10 -8 11284. 9824. 3723. o
5905 2 28 6 8 8060. 7628. 5736. <
5905 1 4 10 -8 8060. 7628. 5736. <
5906 1 2 0 9 6209. 5126. 5553. <
5907 1 2 0 -9 6365. 2014. 5615. <
5908 2 -2 1 -9 46554. 50708. 5054. o
5908 1 4 0 9 46554. 50708. 5054. o
5909 2 -2 1 9 46136. 46803. 5307. o
5909 1 4 0 -9 46136. 46803. 5307. o
5910 1 6 0 9 138758. 159386. 4896. o
5911 1 6 0 -9 137822. 154992. 4928. o
5912 2 -4 2 -9 1195590. 1267150. 2297. o
5912 1 8 0 9 1195590. 1267150. 2297. o
5913 2 -4 2 9 1187530. 1260930. 2648. o
5913 1 8 0 -9 1187530. 1260930. 2648. o
5914 1 10 0 9 10855. 13791. 3781. o
5915 1 10 0 -9 11121. 16170. 3839. o
5916 2 -6 3 -9 30360. 30388. 3417. o
5916 1 12 0 9 30360. 30388. 3417. o
5917 2 -6 3 9 29906. 34172. 3467. o
5917 1 12 0 -9 29906. 34172. 3467. o
5918 1 14 0 9 7519. 10740. 2560. o
5919 1 14 0 -9 7753. 7567. 3112. o
5920 2 -8 4 -9 560052. 553762. 4426. o
5920 1 16 0 9 560052. 553762. 4426. o
5921 2 -8 4 9 563467. 602152. 2869. o
5921 1 16 0 -9 563467. 602152. 2869. o
5922 1 18 0 9 95190. 88785. 4187. o
5923 1 18 0 -9 94918. 97450. 2352. o
5924 2 -10 5 -9 7947. 8055. 3661. o
5924 1 20 0 9 7947. 8055. 3661. o
5925 2 -10 5 9 8222. 9519. 2073. o
5925 1 20 0 -9 8222. 9519. 2073. o
5926 1 22 0 9 15723. 11533. 3604. o
5927 1 22 0 -9 15638. 18123. 2253. o
5928 2 -12 6 -9 7996. 5309. 3906. <
5928 1 24 0 9 7996. 5309. 3906. <
5929 2 -12 6 9 8065. 6346. 2259. o
5929 1 24 0 -9 8065. 6346. 2259. o
5930 1 26 0 9 8969. 12509. 3780. o
5931 1 26 0 -9 9149. 9031. 2258. o
5932 2 -14 7 -9 6146. 7445. 3783. <
5932 1 28 0 9 6146. 7445. 3783. <
5933 2 -14 7 9 6092. 10129. 2254. o
5933 1 28 0 -9 6092. 10129. 2254. o
5934 1 30 0 9 52732. 43386. 4117. o
5935 1 30 0 -9 52959. 47901. 2347. o
5936 2 -16 8 -9 30969. 30632. 4089. o
5936 1 32 0 9 30969. 30632. 4089. o
5937 2 -16 8 9 31475. 28497. 2329. o
5937 1 32 0 -9 31475. 28497. 2329. o
5938 1 34 0 9 5126. 3844. 3845. <
5939 1 34 0 -9 5131. 8421. 2377. o
5940 2 20 -8 -9 4002. 6102. 4027. <
5940 1 -34 1 9 4002. 6102. 4027. <
5941 2 20 -8 9 4083. 3722. 2258. <
5941 1 -34 1 -9 4083. 3722. 2258. <
5942 2 18 -7 -9 14162. 8909. 3482. o
5942 1 -30 1 9 14162. 8909. 3482. o
5943 2 18 -7 9 14180. 11716. 2200. o
5943 1 -30 1 -9 14180. 11716. 2200. o
5944 2 16 -6 -9 24338. 17757. 3184. o
5944 1 -26 1 9 24338. 17757. 3184. o
5945 2 16 -6 9 24042. 22639. 2018. o
5945 1 -26 1 -9 24042. 22639. 2018. o
5946 2 14 -5 -9 22722. 21174. 3542. o
5946 1 -22 1 9 22722. 21174. 3542. o
5947 2 14 -5 9 22080. 22272. 2074. o
5947 1 -22 1 -9 22080. 22272. 2074. o
5948 2 12 -4 -9 8001. 10801. 3659. o
5948 1 -18 1 9 8001. 10801. 3659. o
5949 2 12 -4 9 8007. 10984. 2499. o
5949 1 -18 1 -9 8007. 10984. 2499. o
5950 2 10 -3 -9 78745. 75788. 3071. o
5950 1 -14 1 9 78745. 75788. 3071. o
5951 2 10 -3 9 80864. 77374. 3075. o
5951 1 -14 1 -9 80864. 77374. 3075. o
5952 2 8 -2 -9 111813. 113498. 3831. o
5952 1 -10 1 9 111813. 113498. 3831. o
5953 2 8 -2 9 109968. 113132. 4004. o
5953 1 -10 1 -9 109968. 113132. 4004. o
5954 2 6 -1 -9 12267. 10923. 4516. o
5954 1 -6 1 9 12267. 10923. 4516. o
5955 2 6 -1 9 12206. 10984. 4577. o
5955 1 -6 1 -9 12206. 10984. 4577. o
5956 2 4 0 -9 86457. 90188. 5782. o
5956 1 -2 1 9 86457. 90188. 5782. o
5957 2 4 0 9 87284. 84147. 6418. o
5957 1 -2 1 -9 87284. 84147. 6418. o
5958 1 1 1 9 41549. 34721. 3983. o
5959 1 1 1 -9 41625. 34294. 4167. o
5960 2 2 1 -9 97652. 84575. 5971. o
5960 1 2 1 9 97652. 84575. 5971. o
5961 2 2 1 9 98259. 92751. 6064. o
5961 1 2 1 -9 98259. 92751. 6064. o
5962 1 3 1 9 61018. 55773. 3804. o
5963 1 3 1 -9 60988. 52661. 3997. o
5964 1 4 1 9 12351. 9519. 3602. o
5965 1 4 1 -9 12154. 6895. 3604. <
5966 1 5 1 9 17843. 19588. 3415. o
5967 1 5 1 -9 18167. 15438. 3482. o
5968 1 6 1 9 10113. 10618. 3966. o
5969 1 6 1 -9 10035. 12814. 4697. o
5970 1 7 1 9 85745. 96657. 3274. o
5971 1 7 1 -9 86125. 90494. 3448. o
5972 1 8 1 9 12602. 13364. 2928. o
5973 1 8 1 -9 12332. 11838. 2991. o
5974 1 9 1 9 51524. 52234. 2865. o
5975 1 9 1 -9 51671. 52112. 2866. o
5976 2 -2 3 -9 151517. 153223. 4194. o
5976 1 10 1 9 151517. 153223. 4194. o
5977 2 -2 3 9 149480. 151270. 4255. o
5977 1 10 1 -9 149480. 151270. 4255. o
5978 1 11 1 9 24458. 22090. 2508. o
5979 1 11 1 -9 24773. 25812. 2560. o
5980 1 12 1 9 1199. 1281. 2258. <
5981 1 12 1 -9 1199. 2563. 2379. <
5982 1 13 1 9 20970. 20015. 2260. o
5983 1 13 1 -9 21127. 21967. 2317. o
5984 2 -4 4 -9 66124. 73164. 3440. o
5984 1 14 1 9 66124. 73164. 3440. o
5985 2 -4 4 9 68070. 77923. 3483. o
5985 1 14 1 -9 68070. 77923. 3483. o
5986 1 15 1 9 10247. 8970. 2015. o
5987 1 15 1 -9 10040. 10374. 2074. o
5988 1 16 1 9 8577. 7445. 2198. o
5989 1 16 1 -9 8533. 7261. 2015. o
5990 1 17 1 9 59109. 55834. 3067. o
5991 1 17 1 -9 59157. 61936. 2053. o
5992 2 -6 5 -9 5950. 6102. 4149. <
5992 1 18 1 9 5950. 6102. 4149. <
5993 2 -6 5 9 5857. 9336. 2316. o
5993 1 18 1 -9 5857. 9336. 2316. o
5994 1 19 1 9 83615. 74384. 3053. o
5995 1 19 1 -9 83563. 83049. 1715. o
5996 1 20 1 9 15. -854. 2502. <
5997 1 20 1 -9 27. 1342. 1586. <
5998 1 21 1 9 2874. 3478. 2868. <
5999 1 21 1 -9 2874. 3234. 1647. <
6000 2 -8 6 -9 24720. 24347. 4272. o
6000 1 22 1 9 24720. 24347. 4272. o
6001 2 -8 6 9 24245. 23676. 2991. o
6001 1 22 1 -9 24245. 23676. 2991. o
6002 1 23 1 9 8587. 7261. 2808. o
6003 1 23 1 -9 8543. 10862. 1705. o
6004 1 24 1 9 2051. 2929. 2746. <
6005 1 24 1 -9 1957. 3478. 1586. o
6006 1 25 1 9 8333. 915. 2687. <
6007 1 25 1 -9 8254. 10618. 1583. o
6008 2 -10 7 -9 21495. 24469. 4328. o
6008 1 26 1 9 21495. 24469. 4328. o
6009 2 -10 7 9 21239. 21723. 2440. o
6009 1 26 1 -9 21239. 21723. 2440. o
6010 1 27 1 9 1297. -1159. 2502. <
6011 1 27 1 -9 1293. 3905. 1585. o
6012 1 28 1 9 898. 549. 2746. <
6013 1 28 1 -9 892. 976. 1587. <
6014 1 29 1 9 7587. 10862. 2804. o
6015 1 29 1 -9 7502. 9336. 1523. o
6016 2 -12 8 -9 12892. 7567. 3970. <
6016 1 30 1 9 12892. 7567. 3970. <
6017 2 -12 8 9 12923. 13974. 2378. o
6017 1 30 1 -9 12923. 13974. 2378. o
6018 1 31 1 9 9260. 9824. 2806. o
6019 1 31 1 -9 9243. 10434. 1585. o
6020 1 32 1 9 6308. 9275. 2682. o
6021 1 32 1 -9 6189. 7811. 1585. o
6022 1 33 1 9 2182. 7628. 2865. o
6023 1 33 1 -9 2186. 3234. 1586. o
6024 2 -14 9 -9 1762. 4516. 4149. <
6024 1 34 1 9 1762. 4516. 4149. <
6025 2 -14 9 9 1837. 2624. 2441. <
6025 1 34 1 -9 1837. 2624. 2441. <
6026 2 22 -7 -9 16838. 22090. 3653. o
6026 1 -32 2 9 16838. 22090. 3653. o
6027 2 22 -7 9 17061. 18306. 2255. o
6027 1 -32 2 -9 17061. 18306. 2255. o
6028 2 20 -6 -9 59456. 64804. 4066. o
6028 1 -28 2 9 59456. 64804. 4066. o
6029 2 20 -6 9 59221. 58641. 2323. o
6029 1 -28 2 -9 59221. 58641. 2323. o
6030 2 18 -5 -9 7010. 4210. 3906. <
6030 1 -24 2 9 7010. 4210. 3906. <
6031 2 18 -5 9 6976. 7078. 1953. o
6031 1 -24 2 -9 6976. 7078. 1953. o
6032 2 16 -4 -9 150643. 145717. 4619. o
6032 1 -20 2 9 150643. 145717. 4619. o
6033 2 16 -4 9 150111. 145290. 2576. o
6033 1 -20 2 -9 150111. 145290. 2576. o
6034 2 14 -3 -9 6266. 6346. 2624. o
6034 1 -16 2 9 6266. 6346. 2624. o
6035 2 14 -3 9 6537. 6895. 2868. o
6035 1 -16 2 -9 6537. 6895. 2868. o
6036 2 12 -2 -9 29741. 29595. 3112. o
6036 1 -12 2 9 29741. 29595. 3112. o
6037 2 12 -2 9 29884. 31060. 3170. o
6037 1 -12 2 -9 29884. 31060. 3170. o
6038 2 10 -1 -9 35352. 38748. 3835. o
6038 1 -8 2 9 35352. 38748. 3835. o
6039 2 10 -1 9 35640. 44484. 3819. o
6039 1 -8 2 -9 35640. 44484. 3819. o
6040 2 8 0 -9 1091970. 1233290. 24184. o
6040 1 -4 2 9 1091970. 1233290. 24184. o
6041 2 8 0 9 1096630. 1166040. 4433. o
6041 1 -4 2 -9 1096630. 1166040. 4433. o
6042 1 1 2 9 19363. 17330. 3786. o
6043 1 1 2 -9 19403. 12631. 3851. o
6044 1 2 2 9 18864. 16048. 3909. o
6045 1 2 2 -9 18931. 16232. 3969. o
6046 1 3 2 9 2753. 3417. 3844. <
6047 1 3 2 -9 2838. 8177. 3842. o
6048 2 4 2 -9 1066960. 987253. 10629. o
6048 1 4 2 9 1066960. 987253. 10629. o
6049 2 4 2 9 1069370. 892305. 12438. o
6049 1 4 2 -9 1069370. 892305. 12438. o
6050 1 5 2 9 116945. 121492. 3498. o
6051 1 5 2 -9 116632. 113681. 3625. o
6052 1 6 2 9 113241. 112766. 3360. o
6053 1 6 2 -9 113868. 107884. 3588. o
6054 1 7 2 9 21896. 24957. 3045. o
6055 1 7 2 -9 22034. 22944. 2988. o
6056 2 2 3 -9 54639. 62302. 4550. o
6056 1 8 2 9 54639. 62302. 4550. o
6057 2 2 3 9 54359. 61082. 4431. o
6057 1 8 2 -9 54359. 61082. 4431. o
6058 1 9 2 9 14666. 14523. 2685. o
6059 1 9 2 -9 14290. 19527. 2737. o
6060 1 10 2 9 1034. 2563. 2624. <
6061 1 10 2 -9 984. 3844. 2684. <
6062 1 11 2 9 37531. 42043. 2482. o
6063 1 11 2 -9 37173. 44240. 2594. o
6064 1 12 2 9 24452. 33073. 3949. o
6065 1 12 2 -9 24636. 31914. 3584. o
6066 1 13 2 9 15177. 17940. 2191. o
6067 1 13 2 -9 15446. 19160. 2250. o
6068 1 14 2 9 18492. 18672. 2196. o
6069 1 14 2 -9 18823. 20259. 2193. o
6070 1 15 2 9 2297. 6346. 2316. o
6071 1 15 2 -9 2279. 1526. 2075. <
6072 2 -2 5 -9 6597. 5492. 4577. <
6072 1 16 2 9 6597. 5492. 4577. <
6073 2 -2 5 9 6929. 8848. 2500. o
6073 1 16 2 -9 6929. 8848. 2500. o
6074 1 17 2 9 14734. 14340. 2991. o
6075 1 17 2 -9 14906. 15438. 1829. o
6076 1 18 2 9 80765. 74750. 3332. o
6077 1 18 2 -9 80976. 83476. 1738. o
6078 1 19 2 9 24930. 26239. 3231. o
6079 1 19 2 -9 24585. 25324. 1645. o
6080 2 -4 6 -9 139499. 127472. 5448. o
6080 1 20 2 9 139499. 127472. 5448. o
6081 2 -4 6 9 139083. 147487. 2753. o
6081 1 20 2 -9 139083. 147487. 2753. o
6082 1 21 2 9 31242. 26544. 3245. o
6083 1 21 2 -9 31318. 28680. 1721. o
6084 1 22 2 9 7894. 9275. 2867. o
6085 1 22 2 -9 7915. 9336. 1646. o
6086 1 23 2 9 5077. 3600. 3113. <
6087 1 23 2 -9 5148. 6407. 1646. o
6088 2 -6 7 -9 10477. 15316. 4206. o
6088 1 24 2 9 10477. 15316. 4206. o
6089 2 -6 7 9 10504. 10862. 2501. o
6089 1 24 2 -9 10504. 10862. 2501. o
6090 1 25 2 9 11585. 8604. 2871. o
6091 1 25 2 -9 11500. 11533. 1586. o
6092 1 26 2 9 435. 5614. 2805. <
6093 1 26 2 -9 467. -610. 1586. <
6094 1 27 2 9 1273. 4027. 2928. <
6095 1 27 2 -9 1261. 5614. 1583. o
6096 2 -8 8 -9 59392. 56932. 4828. o
6096 1 28 2 9 59392. 56932. 4828. o
6097 2 -8 8 9 59208. 62729. 2602. o
6097 1 28 2 -9 59208. 62729. 2602. o
6098 1 29 2 9 2922. 13242. 2981. o
6099 1 29 2 -9 2928. 4516. 1585. o
6100 1 30 2 9 21800. 20991. 2870. o
6101 1 30 2 -9 21724. 23676. 1702. o
6102 1 31 2 9 5583. 9458. 2804. o
6103 1 31 2 -9 5705. 9336. 1643. o
6104 2 -10 9 -9 17205. 15804. 4700. o
6104 1 32 2 9 17205. 15804. 4700. o
6105 2 -10 9 9 17439. 21662. 2676. o
6105 1 32 2 -9 17439. 21662. 2676. o
6106 1 33 2 9 1847. 3356. 3051. <
6107 1 33 2 -9 1860. 6224. 1644. o
6108 1 34 2 9 10020. 6468. 3114. o
6109 1 34 2 -9 10024. 11716. 1767. o
6110 2 24 -6 -9 5475. 7811. 4026. <
6110 1 -30 3 9 5475. 7811. 4026. <
6111 2 24 -6 9 5439. 5187. 2258. o
6111 1 -30 3 -9 5439. 5187. 2258. o
6112 2 22 -5 -9 12694. 9763. 4090. o
6112 1 -26 3 9 12694. 9763. 4090. o
6113 2 22 -5 9 13087. 14218. 2195. o
6113 1 -26 3 -9 13087. 14218. 2195. o
6114 2 20 -4 -9 2771. 5980. 4270. <
6114 1 -22 3 9 2771. 5980. 4270. <
6115 2 20 -4 9 2833. 4271. 2196. <
6115 1 -22 3 -9 2833. 4271. 2196. <
6116 2 18 -3 -9 3518. 4455. 4576. <
6116 1 -18 3 9 3518. 4455. 4576. <
6117 2 18 -3 9 3477. 6041. 2195. o
6117 1 -18 3 -9 3477. 6041. 2195. o
6118 2 16 -2 -9 10555. 13424. 2926. o
6118 1 -14 3 9 10555. 13424. 2926. o
6119 2 16 -2 9 10442. 12143. 3049. o
6119 1 -14 3 -9 10442. 12143. 3049. o
6120 2 14 -1 -9 98166. 102026. 3756. o
6120 1 -10 3 9 98166. 102026. 3756. o
6121 2 14 -1 9 97129. 102820. 3619. o
6121 1 -10 3 -9 97129. 102820. 3619. o
6122 2 12 0 -9 17343. 15316. 4030. o
6122 1 -6 3 9 17343. 15316. 4030. o
6123 2 12 0 9 17490. 17757. 4149. o
6123 1 -6 3 -9 17490. 17757. 4149. o
6124 2 10 1 -9 218939. 239628. 5888. o
6124 1 -2 3 9 218939. 239628. 5888. o
6125 2 10 1 9 220119. 213572. 5801. o
6125 1 -2 3 -9 220119. 213572. 5801. o
6126 1 1 3 9 35786. 35331. 3784. o
6127 1 1 3 -9 35465. 35514. 3661. o
6128 2 8 2 -9 198601. 162254. 6082. o
6128 1 2 3 9 198601. 162254. 6082. o
6129 2 8 2 9 199405. 188920. 5949. o
6129 1 2 3 -9 199405. 188920. 5949. o
6130 1 3 3 9 42409. 48267. 3457. o
6131 1 3 3 -9 42693. 39114. 3915. o
6132 1 4 3 9 22402. 25018. 3290. o
6133 1 4 3 -9 22526. 21235. 3663. o
6134 1 5 3 9 11153. 9153. 3297. o
6135 1 5 3 -9 11166. 11106. 3112. o
6136 2 6 3 -9 13943. 19222. 4327. o
6136 1 6 3 9 13943. 19222. 4327. o
6137 2 6 3 9 13984. 14218. 4698. o
6137 1 6 3 -9 13984. 14218. 4698. o
6138 1 7 3 9 44091. 41860. 3120. o
6139 1 7 3 -9 43803. 42592. 3238. o
6140 1 8 3 9 12115. 14706. 2865. o
6141 1 8 3 -9 12092. 13852. 2866. o
6142 1 9 3 9 1651. 4210. 2806. <
6143 1 9 3 -9 1624. 2319. 2868. <
6144 2 4 4 -9 90225. 96047. 4422. o
6144 1 10 3 9 90225. 96047. 4422. o
6145 2 4 4 9 89572. 92873. 4130. o
6145 1 10 3 -9 89572. 92873. 4130. o
6146 1 11 3 9 25256. 25751. 2500. o
6147 1 11 3 -9 25380. 30938. 2607. o
6148 1 12 3 9 12126. 10312. 2565. o
6149 1 12 3 -9 12109. 11411. 2625. o
6150 1 13 3 9 95618. 99830. 2581. o
6151 1 13 3 -9 95657. 100318. 2701. o
6152 2 2 5 -9 11976. 15011. 5490. o
6152 1 14 3 9 11976. 15011. 5490. o
6153 2 2 5 9 11992. 14767. 3597. o
6153 1 14 3 -9 11992. 14767. 3597. o
6154 1 15 3 9 3715. 6590. 2561. o
6155 1 15 3 -9 3613. 5126. 1891. o
6156 1 16 3 9 1607. 3295. 2501. <
6157 1 16 3 -9 1628. 4271. 2012. o
6158 1 17 3 9 20915. 19771. 3419. o
6159 1 17 3 -9 21080. 20991. 1953. o
6160 1 18 3 9 2905. 5431. 5125. <
6161 1 18 3 -9 2854. 4149. 2562. <
6162 1 19 3 9 23110. 23737. 3538. o
6163 1 19 3 -9 23173. 28924. 1746. o
6164 1 20 3 9 28862. 25202. 3668. o
6165 1 20 3 -9 28628. 29290. 1706. o
6166 1 21 3 9 3289. 5736. 3355. <
6167 1 21 3 -9 3263. 4027. 1647. o
6168 2 -2 7 -9 6414. 2136. 4943. <
6168 1 22 3 9 6414. 2136. 4943. <
6169 2 -2 7 9 6378. 4455. 2625. <
6169 1 22 3 -9 6378. 4455. 2625. <
6170 1 23 3 9 6730. 9519. 3232. o
6171 1 23 3 -9 6812. 9214. 1705. o
6172 1 24 3 9 1170. -2014. 3173. <
6173 1 24 3 -9 1198. 427. 1648. <
6174 1 25 3 9 128. 2258. 3051. <
6175 1 25 3 -9 102. 61. 1526. <
6176 2 -4 8 -9 16171. 21540. 4693. o
6176 1 26 3 9 16171. 21540. 4693. o
6177 2 -4 8 9 16497. 12509. 2508. o
6177 1 26 3 -9 16497. 12509. 2508. o
6178 1 27 3 9 3271. 2136. 2990. <
6179 1 27 3 -9 3296. 2197. 1648. <
6180 1 28 3 9 1453. -2136. 3112. <
6181 1 28 3 -9 1450. 3539. 1647. o
6182 1 29 3 9 9039. 11594. 3110. o
6183 1 29 3 -9 9224. 11167. 1644. o
6184 2 -6 9 -9 6727. 10312. 4697. o
6184 1 30 3 9 6727. 10312. 4697. o
6185 2 -6 9 9 6677. 8238. 2378. o
6185 1 30 3 -9 6677. 8238. 2378. o
6186 1 31 3 9 1417. 7384. 3109. o
6187 1 31 3 -9 1417. 6346. 1644. o
6188 1 32 3 9 1402. 5431. 3111. <
6189 1 32 3 -9 1457. 7750. 1703. o
6190 1 33 3 9 8755. 13730. 3168. o
6191 1 33 3 -9 8787. 9275. 1647. o
6192 2 26 -5 -9 15556. 10679. 4336. o
6192 1 -28 4 9 15556. 10679. 4336. o
6193 2 26 -5 9 15634. 11899. 2324. o
6193 1 -28 4 -9 15634. 11899. 2324. o
6194 2 24 -4 -9 6238. 11838. 4390. o
6194 1 -24 4 9 6238. 11838. 4390. o
6195 2 24 -4 9 6263. 5248. 2258. o
6195 1 -24 4 -9 6263. 5248. 2258. o
6196 2 22 -3 -9 7931. 5126. 4822. <
6196 1 -20 4 9 7931. 5126. 4822. <
6197 2 22 -3 9 7603. 9580. 2439. o
6197 1 -20 4 -9 7603. 9580. 2439. o
6198 2 20 -2 -9 121567. 121919. 5185. o
6198 1 -16 4 9 121567. 121919. 5185. o
6199 2 20 -2 9 122068. 131316. 3386. o
6199 1 -16 4 -9 122068. 131316. 3386. o
6200 2 18 -1 -9 28483. 27886. 3235. o
6200 1 -12 4 9 28483. 27886. 3235. o
6201 2 18 -1 9 28470. 31731. 3103. o
6201 1 -12 4 -9 28470. 31731. 3103. o
6202 2 16 0 -9 300596. 323104. 4074. o
6202 1 -8 4 9 300596. 323104. 4074. o
6203 2 16 0 9 299560. 320785. 4036. o
6203 1 -8 4 -9 299560. 320785. 4036. o
6204 2 14 1 -9 38638. 51990. 3985. o
6204 1 -4 4 9 38638. 51990. 3985. o
6205 2 14 1 9 38406. 41067. 4265. o
6205 1 -4 4 -9 38406. 41067. 4265. o
6206 1 1 4 9 36932. 40457. 3406. o
6207 1 1 4 -9 36936. 39297. 3471. o
6208 1 2 4 9 5922. 4271. 3479. <
6209 1 2 4 -9 5944. 6285. 3356. <
6210 1 3 4 9 16399. 12875. 3421. o
6211 1 3 4 -9 15945. 12143. 3543. o
6212 2 10 3 -9 43274. 49122. 4560. o
6212 1 4 4 9 43274. 49122. 4560. o
6213 2 10 3 9 43597. 46925. 5362. o
6213 1 4 4 -9 43597. 46925. 5362. o
6214 1 5 4 9 61530. 68953. 3131. o
6215 1 5 4 -9 61269. 59922. 3423. o
6216 1 6 4 9 79283. 86954. 3056. o
6217 1 6 4 -9 79411. 82866. 3334. o
6218 1 7 4 9 183127. 190262. 3500. o
6219 1 7 4 -9 182441. 186418. 3483. o
6220 2 8 4 -9 229241. 224190. 5305. o
6220 1 8 4 9 229241. 224190. 5305. o
6221 2 8 4 9 228987. 230170. 5601. o
6221 1 8 4 -9 228987. 230170. 5601. o
6222 1 9 4 9 56618. 56139. 2810. o
6223 1 9 4 -9 56881. 53576. 3006. o
6224 1 10 4 9 10130. 11106. 2867. o
6225 1 10 4 -9 9917. 12509. 2621. o
6226 1 11 4 9 8191. 8299. 2502. o
6227 1 11 4 -9 8355. 10496. 2622. o
6228 2 6 5 -9 32030. 39114. 6030. o
6228 1 12 4 9 32030. 39114. 6030. o
6229 2 6 5 9 31922. 31853. 4150. o
6229 1 12 4 -9 31922. 31853. 4150. o
6230 1 13 4 9 29075. 28741. 2991. o
6231 1 13 4 -9 28677. 30449. 2313. o
6232 1 14 4 9 472. 5370. 2744. <
6233 1 14 4 -9 506. 488. 2136. <
6234 1 15 4 9 12077. 9275. 2688. o
6235 1 15 4 -9 12230. 12204. 2014. o
6236 2 4 6 -9 102835. 115329. 5671. o
6236 1 16 4 9 102835. 115329. 5671. o
6237 2 4 6 9 103271. 104833. 3037. o
6237 1 16 4 -9 103271. 104833. 3037. o
6238 1 17 4 9 69932. 74079. 3639. o
6239 1 17 4 -9 69442. 77862. 1864. o
6240 1 18 4 9 30329. 30449. 3478. o
6241 1 18 4 -9 30275. 32280. 1760. o
6242 1 19 4 9 3629. 4393. 3417. <
6243 1 19 4 -9 3909. 6041. 1768. o
6244 2 2 7 -9 12895. 11106. 5066. o
6244 1 20 4 9 12895. 11106. 5066. o
6245 2 2 7 9 12538. 13180. 2623. o
6245 1 20 4 -9 12538. 13180. 2623. o
6246 1 21 4 9 20578. 23310. 3473. o
6247 1 21 4 -9 20515. 19282. 1712. o
6248 1 22 4 9 7961. 3539. 3419. <
6249 1 22 4 -9 8041. 7750. 1770. o
6250 1 23 4 9 14490. 12631. 3175. o
6251 1 23 4 -9 14322. 14706. 1708. o
6252 1 24 4 9 5130. 14035. 4815. o
6253 1 24 4 -9 5161. 7139. 2623. o
6254 1 25 4 9 3984. 8299. 3354. o
6255 1 25 4 -9 4087. 6895. 1645. o
6256 1 26 4 9 21760. 23066. 3354. o
6257 1 26 4 -9 21990. 20442. 1774. o
6258 1 27 4 9 2896. 2258. 3295. <
6259 1 27 4 -9 2836. 2075. 1648. <
6260 2 -2 9 -9 13331. 4210. 4885. <
6260 1 28 4 9 13331. 4210. 4885. <
6261 2 -2 9 9 13422. 15072. 2499. o
6261 1 28 4 -9 13422. 15072. 2499. o
6262 1 29 4 9 9516. 3295. 3298. <
6263 1 29 4 -9 9518. 11899. 1766. o
6264 1 30 4 9 9619. 7078. 3236. o
6265 1 30 4 -9 9683. 12509. 1703. o
6266 1 31 4 9 19750. 13730. 3364. o
6267 1 31 4 -9 19790. 19771. 1892. o
6268 2 30 -5 -9 7348. 11655. 4452. o
6268 1 -30 5 9 7348. 11655. 4452. o
6269 2 30 -5 9 7345. 8848. 2317. o
6269 1 -30 5 -9 7345. 8848. 2317. o
6270 2 28 -4 -9 14394. 20930. 4569. o
6270 1 -26 5 9 14394. 20930. 4569. o
6271 2 28 -4 9 14412. 17269. 2313. o
6271 1 -26 5 -9 14412. 17269. 2313. o
6272 2 26 -3 -9 15932. 24957. 4259. o
6272 1 -22 5 9 15932. 24957. 4259. o
6273 2 26 -3 9 15640. 18794. 2374. o
6273 1 -22 5 -9 15640. 18794. 2374. o
6274 2 24 -2 -9 1703. 2258. 5370. <
6274 1 -18 5 9 1703. 2258. 5370. <
6275 2 24 -2 9 1688. 4516. 2440. <
6275 1 -18 5 -9 1688. 4516. 2440. <
6276 2 22 -1 -9 39551. 49122. 4612. o
6276 1 -14 5 9 39551. 49122. 4612. o
6277 2 22 -1 9 40479. 44179. 3343. o
6277 1 -14 5 -9 40479. 44179. 3343. o
6278 2 20 0 -9 29637. 27520. 3178. o
6278 1 -10 5 9 29637. 27520. 3178. o
6279 2 20 0 9 29622. 34782. 3097. o
6279 1 -10 5 -9 29622. 34782. 3097. o
6280 2 18 1 -9 18438. 21662. 3840. o
6280 1 -6 5 9 18438. 21662. 3840. o
6281 2 18 1 9 18879. 22456. 3900. o
6281 1 -6 5 -9 18879. 22456. 3900. o
6282 2 16 2 -9 12358. 14218. 4331. o
6282 1 -2 5 9 12358. 14218. 4331. o
6283 2 16 2 9 11964. 14462. 4452. o
6283 1 -2 5 -9 11964. 14462. 4452. o
6284 1 1 5 9 120483. 123018. 3639. o
6285 1 1 5 -9 120980. 122285. 3527. o
6286 2 14 3 -9 13436. 14767. 4087. o
6286 1 2 5 9 13436. 14767. 4087. o
6287 2 14 3 9 13109. 17330. 4817. o
6287 1 2 5 -9 13109. 17330. 4817. o
6288 1 3 5 9 15432. 17635. 3170. o
6289 1 3 5 -9 15255. 11838. 3116. o
6290 1 4 5 9 5526. 7384. 2745. o
6291 1 4 5 -9 5644. 3173. 3174. <
6292 1 5 5 9 3355. 305. 2746. <
6293 1 5 5 -9 3382. 4882. 3234. <
6294 2 12 4 -9 24029. 21113. 4397. o
6294 1 6 5 9 24029. 21113. 4397. o
6295 2 12 4 9 24474. 22700. 5250. o
6295 1 6 5 -9 24474. 22700. 5250. o
6296 1 7 5 9 1705. 2868. 2563. <
6297 1 7 5 -9 1631. -122. 3173. <
6298 1 8 5 9 575. 183. 2502. <
6299 1 8 5 -9 593. 1709. 2929. <
6300 1 9 5 9 3118. 4943. 3172. <
6301 1 9 5 -9 3208. 4088. 2929. <
6302 2 10 5 -9 35510. 24408. 5811. o
6302 1 10 5 9 35510. 24408. 5811. o
6303 2 10 5 9 35546. 27276. 3558. o
6303 1 10 5 -9 35546. 27276. 3558. o
6304 1 11 5 9 9314. 7567. 2991. o
6305 1 11 5 -9 9339. 9641. 2502. o
6306 1 12 5 9 5942. 4699. 2808. <
6307 1 12 5 -9 5980. 8665. 2439. o
6308 1 13 5 9 8672. 7933. 3174. o
6309 1 13 5 -9 8794. 11167. 2499. o
6310 2 8 6 -9 46503. 48511. 6037. o
6310 1 14 5 9 46503. 48511. 6037. o
6311 2 8 6 9 47320. 44362. 3428. o
6311 1 14 5 -9 47320. 44362. 3428. o
6312 1 15 5 9 8132. 6346. 3601. <
6313 1 15 5 -9 8303. 7994. 2441. o
6314 1 16 5 9 13882. 13486. 3540. o
6315 1 16 5 -9 13853. 15255. 1950. o
6316 1 17 5 9 15557. 15255. 3540. o
6317 1 17 5 -9 15596. 18184. 2008. o
6318 2 6 7 -9 3719. -366. 5797. <
6318 1 18 5 9 3719. -366. 5797. <
6319 2 6 7 9 3761. 5187. 2745. <
6319 1 18 5 -9 3761. 5187. 2745. <
6320 1 19 5 9 4527. 183. 3479. <
6321 1 19 5 -9 4704. 3173. 1770. <
6322 1 20 5 9 18408. 17330. 3541. o
6323 1 20 5 -9 18562. 20137. 1826. o
6324 1 21 5 9 26605. 25934. 3785. o
6325 1 21 5 -9 26705. 27276. 1828. o
6326 2 4 8 -9 20141. 21418. 5918. o
6326 1 22 5 9 20141. 21418. 5918. o
6327 2 4 8 9 19903. 17635. 2689. o
6327 1 22 5 -9 19903. 17635. 2689. o
6328 1 23 5 9 6981. 3356. 3601. <
6329 1 23 5 -9 7015. 7994. 1768. o
6330 1 24 5 9 7551. 9519. 3782. o
6331 1 24 5 -9 7524. 7200. 1831. o
6332 1 25 5 9 29327. 28558. 3541. o
6333 1 25 5 -9 29642. 32890. 1816. o
6334 2 2 9 -9 11845. 14462. 4941. o
6334 1 26 5 9 11845. 14462. 4941. o
6335 2 2 9 9 11888. 16170. 2740. o
6335 1 26 5 -9 11888. 16170. 2740. o
6336 1 27 5 9 3521. 8726. 3353. o
6337 1 27 5 -9 3462. 6651. 1767. o
6338 1 28 5 9 307. 3966. 3050. <
6339 1 28 5 -9 311. 3112. 1769. <
6340 1 29 5 9 1942. 5858. 3355. <
6341 1 29 5 -9 1951. 3905. 1830. o
6342 1 30 5 9 6051. 18977. 4749. o
6343 1 30 5 -9 6047. 7689. 2745. o
6344 2 30 -3 -9 11410. 14950. 4757. o
6344 1 -24 6 9 11410. 14950. 4757. o
6345 2 30 -3 9 11413. 16232. 2433. o
6345 1 -24 6 -9 11413. 16232. 2433. o
6346 2 28 -2 -9 15357. 15316. 4577. o
6346 1 -20 6 9 15357. 15316. 4577. o
6347 2 28 -2 9 15535. 7994. 2571. o
6347 1 -20 6 -9 15535. 7994. 2571. o
6348 2 26 -1 -9 26663. 28924. 4695. o
6348 1 -16 6 9 26663. 28924. 4695. o
6349 2 26 -1 9 26840. 28558. 2680. o
6349 1 -16 6 -9 26840. 28558. 2680. o
6350 2 24 0 -9 33938. 39541. 5237. o
6350 1 -12 6 9 33938. 39541. 5237. o
6351 2 24 0 9 33601. 43874. 3508. o
6351 1 -12 6 -9 33601. 43874. 3508. o
6352 2 22 1 -9 49402. 53271. 4136. o
6352 1 -8 6 9 49402. 53271. 4136. o
6353 2 22 1 9 49556. 53271. 3463. o
6353 1 -8 6 -9 49556. 53271. 3463. o
6354 2 20 2 -9 70017. 74384. 4864. o
6354 1 -4 6 9 70017. 74384. 4864. o
6355 2 20 2 9 69972. 75116. 4309. o
6355 1 -4 6 -9 69972. 75116. 4309. o
6356 1 1 6 9 1321. 2441. 3356. <
6357 1 1 6 -9 1312. 1098. 3112. <
6358 1 2 6 9 7895. 6285. 3357. <
6359 1 2 6 -9 7884. 7384. 3356. o
6360 1 3 6 9 21405. 22456. 3354. o
6361 1 3 6 -9 21624. 22090. 3294. o
6362 2 16 4 -9 62449. 67062. 5232. o
6362 1 4 6 9 62449. 67062. 5232. o
6363 2 16 4 9 62221. 61082. 5861. o
6363 1 4 6 -9 62221. 61082. 5861. o
6364 1 5 6 9 163264. 176960. 4121. o
6365 1 5 6 -9 163223. 169942. 4014. o
6366 1 6 6 9 10241. 10252. 3356. o
6367 1 6 6 -9 10038. 9702. 3112. o
6368 1 7 6 9 26563. 29107. 3473. o
6369 1 7 6 -9 27106. 28863. 3169. o
6370 2 14 5 -9 54374. 49915. 7209. o
6370 1 8 6 9 54374. 49915. 7209. o
6371 2 14 5 9 54252. 60716. 5167. o
6371 1 8 6 -9 54252. 60716. 5167. o
6372 1 9 6 9 38570. 37528. 3420. o
6373 1 9 6 -9 38425. 43752. 3154. o
6374 1 10 6 9 2740. 1037. 3295. <
6375 1 10 6 -9 2823. 2746. 3112. <
6376 1 11 6 9 1574. 2441. 2990. <
6377 1 11 6 -9 1566. 1464. 2990. <
6378 2 12 6 -9 40953. 39602. 6836. o
6378 1 12 6 9 40953. 39602. 6836. o
6379 2 12 6 9 40688. 41067. 4209. o
6379 1 12 6 -9 40688. 41067. 4209. o
6380 1 13 6 9 2837. 488. 4272. <
6381 1 13 6 -9 2938. 2441. 2624. <
6382 1 14 6 9 19247. 19954. 3904. o
6383 1 14 6 -9 19242. 17513. 2322. o
6384 1 15 6 9 19920. 18245. 3603. o
6385 1 15 6 -9 19810. 21418. 2254. o
6386 2 10 7 -9 24618. 20808. 5374. o
6386 1 16 6 9 24618. 20808. 5374. o
6387 2 10 7 9 24751. 26239. 4513. o
6387 1 16 6 -9 24751. 26239. 4513. o
6388 1 17 6 9 8415. 8482. 3539. o
6389 1 17 6 -9 8410. 9092. 2257. o
6390 1 18 6 9 19495. 22700. 3473. o
6391 1 18 6 -9 19587. 18855. 2076. o
6392 1 19 6 9 82351. 73347. 4193. o
6393 1 19 6 -9 81932. 85978. 2279. o
6394 2 8 8 -9 3409. 5675. 5552. <
6394 1 20 6 9 3409. 5675. 5552. <
6395 2 8 8 9 3565. 4455. 3051. <
6395 1 20 6 -9 3565. 4455. 3051. <
6396 1 21 6 9 40516. 41433. 4208. o
6397 1 21 6 -9 40494. 43203. 2121. o
6398 1 22 6 9 247. 2319. 3600. <
6399 1 22 6 -9 272. 1953. 1952. <
6400 1 23 6 9 3522. 4821. 3844. <
6401 1 23 6 -9 3500. 5492. 1890. o
6402 2 6 9 -9 14292. 5187. 5556. <
6402 1 24 6 9 14292. 5187. 5556. <
6403 2 6 9 9 14274. 12204. 2688. o
6403 1 24 6 -9 14274. 12204. 2688. o
6404 1 25 6 9 5657. 6956. 3600. <
6405 1 25 6 -9 5575. 7750. 1889. o
6406 1 26 6 9 258. 8299. 3414. o
6407 1 26 6 -9 277. 6041. 1949. o
6408 1 27 6 9 337. 6590. 3842. <
6409 1 27 6 -9 331. 5614. 1950. o
6410 2 32 -2 -9 4246. 5431. 4210. <
6410 1 -22 7 9 4246. 5431. 4210. <
6411 2 32 -2 9 4214. 8543. 2621. o
6411 1 -22 7 -9 4214. 8543. 2621. o
6412 2 30 -1 -9 16654. 19282. 4940. o
6412 1 -18 7 9 16654. 19282. 4940. o
6413 2 30 -1 9 16790. 15072. 2566. o
6413 1 -18 7 -9 16790. 15072. 2566. o
6414 2 28 0 -9 1587. -488. 4332. <
6414 1 -14 7 9 1587. -488. 4332. <
6415 2 28 0 9 1633. 3051. 2501. <
6415 1 -14 7 -9 1633. 3051. 2501. <
6416 2 26 1 -9 13649. 18184. 5610. o
6416 1 -10 7 9 13649. 18184. 5610. o
6417 2 26 1 9 13646. 13791. 3478. o
6417 1 -10 7 -9 13646. 13791. 3478. o
6418 2 24 2 -9 18019. 18611. 4393. o
6418 1 -6 7 9 18019. 18611. 4393. o
6419 2 24 2 9 17725. 20747. 3535. o
6419 1 -6 7 -9 17725. 20747. 3535. o
6420 2 22 3 -9 24312. 26056. 5062. o
6420 1 -2 7 9 24312. 26056. 5062. o
6421 2 22 3 9 24442. 27154. 4878. o
6421 1 -2 7 -9 24442. 27154. 4878. o
6422 1 1 7 9 23807. 21662. 3909. o
6423 1 1 7 -9 24259. 15987. 3977. o
6424 2 20 4 -9 25624. 32585. 5482. o
6424 1 2 7 9 25624. 32585. 5482. o
6425 2 20 4 9 25823. 20442. 6839. o
6425 1 2 7 -9 25823. 20442. 6839. o
6426 1 3 7 9 5224. 5004. 3722. <
6427 1 3 7 -9 5275. 4332. 3601. <
6428 1 4 7 9 33835. 37100. 3836. o
6429 1 4 7 -9 33890. 33378. 3601. o
6430 1 5 7 9 8645. 9519. 3600. o
6431 1 5 7 -9 8671. 9092. 3295. o
6432 2 18 5 -9 16584. 22761. 5730. o
6432 1 6 7 9 16584. 22761. 5730. o
6433 2 18 5 9 16286. 19282. 6832. o
6433 1 6 7 -9 16286. 19282. 6832. o
6434 1 7 7 9 1. 305. 3234. <
6435 1 7 7 -9 0. 488. 3234. <
6436 1 8 7 9 35936. 39541. 3406. o
6437 1 8 7 -9 35871. 36795. 3109. o
6438 1 9 7 9 8815. 9214. 3173. o
6439 1 9 7 -9 8852. 7689. 3174. o
6440 2 16 6 -9 14430. 9031. 6166. <
6440 1 10 7 9 14430. 9031. 6166. <
6441 2 16 6 9 14344. 12265. 5615. o
6441 1 10 7 -9 14344. 12265. 5615. o
6442 1 11 7 9 9888. 12204. 4453. o
6443 1 11 7 -9 9951. 8238. 2808. o
6444 1 12 7 9 7181. 4149. 4333. <
6445 1 12 7 -9 7073. 6468. 2502. o
6446 1 13 7 9 68682. 64743. 4409. o
6447 1 13 7 -9 68981. 73042. 2532. o
6448 2 14 7 -9 377. 610. 6590. <
6448 1 14 7 9 377. 610. 6590. <
6449 1 15 7 9 9760. 10068. 3966. o
6450 1 15 7 -9 9723. 9458. 3967. o
6451 1 16 7 9 4768. 5675. 4149. <
6452 1 16 7 -9 4837. 7139. 3050. o
6453 1 17 7 9 490. 2868. 4149. <
6454 1 17 7 -9 486. 976. 2746. <
6455 2 12 8 -9 16129. 15316. 7628. o
6455 1 18 7 9 16129. 15316. 7628. o
6456 2 12 8 9 16257. 12509. 4397. o
6456 1 18 7 -9 16257. 12509. 4397. o
6457 1 19 7 9 1614. 11533. 4327. o
6458 1 19 7 -9 1588. 5797. 2439. o
6459 1 20 7 9 6902. 10129. 4148. o
6460 1 20 7 -9 6797. 7384. 2379. o
6461 1 21 7 9 2387. 4699. 4332. <
6462 1 21 7 -9 2384. 5614. 2317. o
6463 2 10 9 -9 1138. 3295. 5919. <
6463 1 22 7 9 1138. 3295. 5919. <
6464 2 10 9 9 1162. 4638. 3660. <
6464 1 22 7 -9 1162. 4638. 3660. <
6465 1 23 7 9 1699. 2563. 4149. <
6466 1 23 7 -9 1711. 6468. 2133. o
6467 1 24 7 9 5719. 7628. 4210. <
6468 1 24 7 -9 5603. 6651. 2135. o
6469 2 34 -1 -9 12073. 11350. 6102. <
6469 1 -20 8 9 12073. 11350. 6102. <
6470 2 34 -1 9 12068. 11960. 3051. o
6470 1 -20 8 -9 12068. 11960. 3051. o
6471 2 32 0 -9 11513. 10496. 5675. <
6471 1 -16 8 9 11513. 10496. 5675. <
6472 2 32 0 9 11401. 10190. 3296. o
6472 1 -16 8 -9 11401. 10190. 3296. o
6473 2 30 1 -9 10836. 10068. 5980. <
6473 1 -12 8 9 10836. 10068. 5980. <
6474 2 30 1 9 10914. 9458. 3296. o
6474 1 -12 8 -9 10914. 9458. 3296. o
6475 2 28 2 -9 15234. 17879. 7321. o
6475 1 -8 8 9 15234. 17879. 7321. o
6476 2 28 2 9 15176. 14645. 6224. o
6476 1 -8 8 -9 15176. 14645. 6224. o
6477 2 26 3 -9 31605. 32097. 4698. o
6477 1 -4 8 9 31605. 32097. 4698. o
6478 2 26 3 9 31620. 19222. 5932. o
6478 1 -4 8 -9 31620. 19222. 5932. o
6479 1 1 8 9 5759. 4210. 3296. <
6480 1 1 8 -9 5739. 4943. 4943. <
6481 1 2 8 9 21106. 23066. 3597. o
6482 1 2 8 -9 21007. 15804. 4643. o
6483 1 3 8 9 19728. 21662. 4330. o
6484 1 3 8 -9 19723. 14157. 4704. o
6485 2 22 5 -9 32340. 31426. 5859. o
6485 1 4 8 9 32340. 31426. 5859. o
6486 2 22 5 9 32475. 16292. 6848. o
6486 1 4 8 -9 32475. 16292. 6848. o
6487 1 5 8 9 12907. 16232. 3535. o
6488 1 5 8 -9 13145. 7567. 4397. <
6489 1 6 8 9 3754. 5004. 3356. <
6490 1 6 8 -9 3692. 8909. 4269. o
6491 1 7 8 9 96417. 103308. 4413. o
6492 1 7 8 -9 95388. 83964. 4876. o
6493 2 20 6 -9 3397. 5736. 5796. <
6493 1 8 8 9 3397. 5736. 5796. <
6494 2 20 6 9 3267. 7567. 6101. <
6494 1 8 8 -9 3267. 7567. 6101. <
6495 1 9 8 9 25434. 23188. 4763. o
6496 1 9 8 -9 25586. 24591. 2992. o
6497 1 10 8 9 3320. 9885. 4451. o
6498 1 10 8 -9 3291. 2197. 3295. <
6499 1 11 8 9 21581. 20747. 4639. o
6500 1 11 8 -9 21502. 20137. 3419. o
6501 2 18 7 -9 11567. 15865. 7015. o
6501 1 12 8 9 11567. 15865. 7015. o
6502 2 18 7 9 11624. 10007. 6347. <
6502 1 12 8 -9 11624. 10007. 6347. <
6503 1 13 8 9 270. 1892. 4515. <
6504 1 13 8 -9 260. 3417. 3295. <
6505 1 14 8 9 5141. 8604. 4575. <
6506 1 14 8 -9 5174. 8970. 3354. o
6507 1 15 8 9 3069. 6041. 4637. <
6508 1 15 8 -9 3084. 6712. 2744. o
6509 2 16 8 -9 6127. 5431. 7079. <
6509 1 16 8 9 6127. 5431. 7079. <
6510 2 16 8 9 6124. 4516. 4821. <
6510 1 16 8 -9 6124. 4516. 4821. <
6511 1 17 8 9 15540. 12814. 4884. o
6512 1 17 8 -9 15518. 13486. 2688. o
6513 1 18 8 9 7159. 8116. 4759. <
6514 1 18 8 -9 7292. 10312. 2682. o
6515 1 19 8 9 1871. 5309. 5003. <
6516 1 19 8 -9 1901. 5370. 2745. <
6517 2 14 9 -9 12046. 8482. 7690. <
6517 1 20 8 9 12046. 8482. 7690. <
6518 2 14 9 9 12052. 9763. 5371. <
6518 1 20 8 -9 12052. 9763. 5371. <
6519 2 34 1 -9 1688. 5553. 3904. <
6519 1 -14 9 9 1688. 5553. 3904. <
6520 2 34 1 9 1708. 7689. 4269. <
6520 1 -14 9 -9 1708. 7689. 4269. <
6521 2 32 2 -9 5973. 7322. 5125. <
6521 1 -10 9 9 5973. 7322. 5125. <
6522 2 32 2 9 5891. 9336. 3659. o
6522 1 -10 9 -9 5891. 9336. 3659. o
6523 2 30 3 -9 17047. 12814. 8362. <
6523 1 -6 9 9 17047. 12814. 8362. <
6524 2 30 3 9 17117. 14645. 4518. o
6524 1 -6 9 -9 17117. 14645. 4518. o
6525 2 28 4 9 4031. 4393. 6895. <
6525 1 -2 9 -9 4031. 4393. 6895. <
6526 1 1 9 9 23099. 18184. 4095. o
6527 1 1 9 -9 22810. 18977. 5374. o
6528 2 26 5 -9 3748. 3417. 5858. <
6528 1 2 9 9 3748. 3417. 5858. <
6529 2 26 5 9 3716. 4699. 7017. <
6529 1 2 9 -9 3716. 4699. 7017. <
6530 1 3 9 9 4278. 3844. 5431. <
6531 1 3 9 -9 4265. 976. 4760. <
6532 1 4 9 9 5146. 7200. 5918. <
6533 1 4 9 -9 5151. 4760. 4699. <
6534 1 5 9 9 684. 6102. 5796. <
6535 1 5 9 -9 679. 2075. 3600. <
6536 2 24 6 -9 18674. 13791. 6166. o
6536 1 6 9 9 18674. 13791. 6166. o
6537 2 24 6 9 18737. 8726. 7022. <
6537 1 6 9 -9 18737. 8726. 7022. <
6538 1 7 9 9 1614. 2746. 4820. <
6539 1 7 9 -9 1603. 1892. 3417. <
6540 1 8 9 9 16075. 17025. 4576. o
6541 1 8 9 -9 16111. 13547. 3481. o
6542 1 9 9 9 6755. 10496. 4208. o
6543 1 9 9 -9 6755. 8726. 3416. o
6544 2 22 7 -9 2513. 4577. 6346. <
6544 1 10 9 9 2513. 4577. 6346. <
6545 2 22 7 9 2476. 4516. 6041. <
6545 1 10 9 -9 2476. 4516. 6041. <
6546 1 11 9 9 14960. 11045. 3787. o
6547 1 11 9 -9 15088. 13058. 3114. o
6548 1 12 9 9 6065. 7567. 3660. o
6549 1 12 9 -9 5899. 7322. 3233. o
6550 1 13 9 9 13700. 10496. 3420. o
6551 1 13 9 -9 14178. 13180. 3479. o
6552 2 20 8 -9 3880. 7872. 6650. <
6552 1 14 9 9 3880. 7872. 6650. <
6553 2 20 8 9 3915. 5614. 5430. <
6553 1 14 9 -9 3915. 5614. 5430. <
6554 1 15 9 9 2504. 6407. 3416. <
6555 1 15 9 -9 2452. 6224. 3294. <
6556 2 0 0 -10 68293. 63339. 7700. o
6556 1 0 0 10 68293. 63339. 7700. o
6557 2 0 0 10 68326. 72187. 7679. o
6557 1 0 0 -10 68326. 72187. 7679. o
6558 1 2 0 10 8087. 7445. 5065. <
6559 1 2 0 -10 7899. 6407. 5004. <
6560 2 -2 1 -10 611255. 657680. 5399. o
6560 1 4 0 10 611255. 657680. 5399. o
6561 2 -2 1 10 624352. 624790. 6640. o
6561 1 4 0 -10 624352. 624790. 6640. o
6562 1 6 0 10 63898. 64255. 4453. o
6563 1 6 0 -10 62800. 61631. 4581. o
6564 2 -4 2 -10 155669. 168600. 4388. o
6564 1 8 0 10 155669. 168600. 4388. o
6565 2 -4 2 10 162770. 157433. 4445. o
6565 1 8 0 -10 162770. 157433. 4445. o
6566 1 10 0 10 36084. 41738. 3706. o
6567 1 10 0 -10 36055. 37955. 3717. o
6568 2 -6 3 -10 35586. 35209. 3357. o
6568 1 12 0 10 35586. 35209. 3357. o
6569 2 -6 3 10 35391. 38504. 3286. o
6569 1 12 0 -10 35391. 38504. 3286. o
6570 1 14 0 10 25571. 24835. 3053. o
6571 1 14 0 -10 25482. 27032. 3047. o
6572 2 -8 4 -10 130010. 123506. 3181. o
6572 1 16 0 10 130010. 123506. 3181. o
6573 2 -8 4 10 126078. 138639. 2964. o
6573 1 16 0 -10 126078. 138639. 2964. o
6574 1 18 0 10 48741. 49122. 3965. o
6575 1 18 0 -10 48713. 50098. 2862. o
6576 2 -10 5 -10 189306. 182818. 4947. o
6576 1 20 0 10 189306. 182818. 4947. o
6577 2 -10 5 10 190676. 192825. 2706. o
6577 1 20 0 -10 190676. 192825. 2706. o
6578 1 22 0 10 3533. 3295. 3478. <
6579 1 22 0 -10 3659. 7017. 2133. o
6580 2 -12 6 -10 74790. 64743. 3891. o
6580 1 24 0 10 74790. 64743. 3891. o
6581 2 -12 6 10 74398. 79693. 2457. o
6581 1 24 0 -10 74398. 79693. 2457. o
6582 1 26 0 10 17167. 5553. 3913. <
6583 1 26 0 -10 17015. 15072. 2261. o
6584 2 -14 7 -10 14367. 13058. 3541. o
6584 1 28 0 10 14367. 13058. 3541. o
6585 2 -14 7 10 14805. 14889. 2258. o
6585 1 28 0 -10 14805. 14889. 2258. o
6586 1 30 0 10 25352. 22272. 3606. o
6587 1 30 0 -10 25367. 22578. 2326. o
6588 2 -16 8 -10 43993. 29778. 3878. o
6588 1 32 0 10 43993. 29778. 3878. o
6589 2 -16 8 10 45373. 44728. 2444. o
6589 1 32 0 -10 45373. 44728. 2444. o
6590 1 34 0 10 1617. 6651. 3904. <
6591 1 34 0 -10 1585. 5187. 2317. o
6592 2 20 -8 -10 19082. 14767. 4215. o
6592 1 -34 1 10 19082. 14767. 4215. o
6593 2 20 -8 10 19096. 19344. 2318. o
6593 1 -34 1 -10 19096. 19344. 2318. o
6594 2 18 -7 -10 16611. 17269. 4027. o
6594 1 -30 1 10 16611. 17269. 4027. o
6595 2 18 -7 10 16850. 18550. 2254. o
6595 1 -30 1 -10 16850. 18550. 2254. o
6596 2 16 -6 -10 135489. 119173. 4278. o
6596 1 -26 1 10 135489. 119173. 4278. o
6597 2 16 -6 10 134401. 130828. 2492. o
6597 1 -26 1 -10 134401. 130828. 2492. o
6598 2 14 -5 -10 143858. 140225. 4122. o
6598 1 -22 1 10 143858. 140225. 4122. o
6599 2 14 -5 10 145086. 145900. 2428. o
6599 1 -22 1 -10 145086. 145900. 2428. o
6600 2 12 -4 -10 19636. 19466. 3845. o
6600 1 -18 1 10 19636. 19466. 3845. o
6601 2 12 -4 10 19792. 21235. 2621. o
6601 1 -18 1 -10 19792. 21235. 2621. o
6602 2 10 -3 -10 378126. 358984. 4086. o
6602 1 -14 1 10 378126. 358984. 4086. o
6603 2 10 -3 10 373398. 383210. 3707. o
6603 1 -14 1 -10 373398. 383210. 3707. o
6604 2 8 -2 -10 278063. 280634. 4350. o
6604 1 -10 1 10 278063. 280634. 4350. o
6605 2 8 -2 10 278787. 289177. 4209. o
6605 1 -10 1 -10 278787. 289177. 4209. o
6606 2 6 -1 -10 71737. 85124. 4575. o
6606 1 -6 1 10 71737. 85124. 4575. o
6607 2 6 -1 10 72244. 81585. 4534. o
6607 1 -6 1 -10 72244. 81585. 4534. o
6608 2 4 0 -10 751382. 649809. 9335. o
6608 1 -2 1 10 751382. 649809. 9335. o
6609 2 4 0 10 741960. 664942. 8858. o
6609 1 -2 1 -10 741960. 664942. 8858. o
6610 1 0 1 10 35367. 36002. 4758. o
6611 1 0 1 -10 36919. 39908. 5425. o
6612 1 1 1 10 20867. 21296. 3661. o
6613 1 1 1 -10 20250. 16170. 3788. o
6614 2 2 1 -10 784685. 734627. 8480. o
6614 1 2 1 10 784685. 734627. 8480. o
6615 2 2 1 10 779243. 759707. 8020. o
6615 1 2 1 -10 779243. 759707. 8020. o
6616 1 3 1 10 58258. 48938. 3636. o
6617 1 3 1 -10 57875. 49610. 3693. o
6618 1 4 1 10 6599. 5431. 3418. <
6619 1 4 1 -10 6771. 9641. 3415. o
6620 1 5 1 10 138103. 147365. 3374. o
6621 1 5 1 -10 137344. 138883. 3584. o
6622 2 0 2 -10 85626. 96657. 4578. o
6622 1 6 1 10 85626. 96657. 4578. o
6623 2 0 2 10 86493. 92873. 5034. o
6623 1 6 1 -10 86493. 92873. 5034. o
6624 1 7 1 10 247652. 267148. 3202. o
6625 1 7 1 -10 246693. 254883. 3380. o
6626 1 8 1 10 7749. 10190. 2805. o
6627 1 8 1 -10 7652. 5980. 2808. o
6628 1 9 1 10 11300. 15438. 2618. o
6629 1 9 1 -10 11452. 13119. 2683. o
6630 2 -2 3 -10 238918. 258972. 4141. o
6630 1 10 1 10 238918. 258972. 4141. o
6631 2 -2 3 10 240505. 254578. 4303. o
6631 1 10 1 -10 240505. 254578. 4303. o
6632 1 11 1 10 5987. 6346. 2319. o
6633 1 11 1 -10 5829. 6956. 2379. o
6634 1 12 1 10 1097. 2807. 2379. <
6635 1 12 1 -10 1079. 3051. 2379. <
6636 1 13 1 10 2660. 2563. 2136. <
6637 1 13 1 -10 2591. 1587. 2258. <
6638 2 -4 4 -10 345840. 344400. 4242. o
6638 1 14 1 10 345840. 344400. 4242. o
6639 2 -4 4 10 341190. 372226. 3501. o
6639 1 14 1 -10 341190. 372226. 3501. o
6640 1 15 1 10 184. 2868. 2013. <
6641 1 15 1 -10 206. 122. 2075. <
6642 1 16 1 10 17979. 19527. 2010. o
6643 1 16 1 -10 18087. 20198. 2008. o
6644 1 17 1 10 53696. 51013. 2335. o
6645 1 17 1 -10 53888. 54003. 2135. o
6646 2 -6 5 -10 14268. 15255. 4209. o
6646 1 18 1 10 14268. 15255. 4209. o
6647 2 -6 5 10 14437. 10862. 2994. o
6647 1 18 1 -10 14437. 10862. 2994. o
6648 1 19 1 10 57879. 59861. 3041. o
6649 1 19 1 -10 58156. 58885. 2008. o
6650 1 20 1 10 5976. 6773. 2745. o
6651 1 20 1 -10 6029. 6529. 1708. o
6652 1 21 1 10 9728. 7567. 2870. o
6653 1 21 1 -10 9661. 9946. 1647. o
6654 2 -8 6 -10 136700. 136076. 4825. o
6654 1 22 1 10 136700. 136076. 4825. o
6655 2 -8 6 10 137688. 151697. 2604. o
6655 1 22 1 -10 137688. 151697. 2604. o
6656 1 23 1 10 29056. 31670. 2677. o
6657 1 23 1 -10 29133. 32036. 1633. o
6658 1 24 1 10 12639. 13547. 2745. o
6659 1 24 1 -10 12607. 14645. 1582. o
6660 1 25 1 10 24852. 22150. 2569. o
6661 1 25 1 -10 24782. 23493. 1653. o
6662 2 -10 7 -10 134868. 128448. 4927. o
6662 1 26 1 10 134868. 128448. 4927. o
6663 2 -10 7 10 133628. 140592. 2903. o
6663 1 26 1 -10 133628. 140592. 2903. o
6664 1 27 1 10 10092. 14035. 2802. o
6665 1 27 1 -10 10026. 11777. 1644. o
6666 1 28 1 10 2220. 1526. 2807. <
6667 1 28 1 -10 2274. 2746. 1586. <
6668 1 29 1 10 38520. 34355. 2760. o
6669 1 29 1 -10 38539. 36918. 1718. o
6670 2 -12 8 -10 17801. 18062. 3661. o
6670 1 30 1 10 17801. 18062. 3661. o
6671 2 -12 8 10 18045. 17391. 2320. o
6671 1 30 1 -10 18045. 17391. 2320. o
6672 1 31 1 10 17162. 18916. 2804. o
6673 1 31 1 -10 17176. 14828. 1653. o
6674 1 32 1 10 756. 7567. 2681. o
6675 1 32 1 -10 758. 4516. 1584. o
6676 1 33 1 10 4518. 4699. 2746. <
6677 1 33 1 -10 4493. 10496. 1701. o
6678 2 -14 9 -10 19246. 6529. 4097. <
6678 1 34 1 10 19246. 6529. 4097. <
6679 2 -14 9 10 19330. 21235. 2498. o
6679 1 34 1 -10 19330. 21235. 2498. o
6680 2 22 -7 -10 34350. 31731. 4338. o
6680 1 -32 2 10 34350. 31731. 4338. o
6681 2 22 -7 10 34991. 29534. 2217. o
6681 1 -32 2 -10 34991. 29534. 2217. o
6682 2 20 -6 -10 29133. 31060. 3962. o
6682 1 -28 2 10 29133. 31060. 3962. o
6683 2 20 -6 10 28177. 25995. 2265. o
6683 1 -28 2 -10 28177. 25995. 2265. o
6684 2 18 -5 -10 2258. 2319. 3478. <
6684 1 -24 2 10 2258. 2319. 3478. <
6685 2 18 -5 10 2332. 5370. 2012. o
6685 1 -24 2 -10 2332. 5370. 2012. o
6686 2 16 -4 -10 155516. 137724. 4841. o
6686 1 -20 2 10 155516. 137724. 4841. o
6687 2 16 -4 10 158827. 154687. 2689. o
6687 1 -20 2 -10 158827. 154687. 2689. o
6688 2 14 -3 -10 137787. 126252. 3356. o
6688 1 -16 2 10 137787. 126252. 3356. o
6689 2 14 -3 10 140179. 140836. 3165. o
6689 1 -16 2 -10 140179. 140836. 3165. o
6690 2 12 -2 -10 51907. 56322. 3091. o
6690 1 -12 2 10 51907. 56322. 3091. o
6691 2 12 -2 10 51829. 57604. 3146. o
6691 1 -12 2 -10 51829. 57604. 3146. o
6692 2 10 -1 -10 338853. 351906. 4692. o
6692 1 -8 2 10 338853. 351906. 4692. o
6693 2 10 -1 10 340981. 341166. 4634. o
6693 1 -8 2 -10 340981. 341166. 4634. o
6694 2 8 0 -10 70406. 76032. 4675. o
6694 1 -4 2 10 70406. 76032. 4675. o
6695 2 8 0 10 66144. 71211. 4556. o
6695 1 -4 2 -10 66144. 71211. 4556. o
6696 2 6 1 -10 137991. 137846. 5676. o
6696 1 0 2 10 137991. 137846. 5676. o
6697 2 6 1 10 136824. 127289. 6096. o
6697 1 0 2 -10 136824. 127289. 6096. o
6698 1 1 2 10 19984. 19649. 3601. o
6699 1 1 2 -10 20422. 18855. 3663. o
6700 1 2 2 10 2815. 4455. 3417. <
6701 1 2 2 -10 2895. 6346. 3782. <
6702 1 3 2 10 33035. 36551. 3407. o
6703 1 3 2 -10 33532. 37223. 3529. o
6704 2 4 2 -10 44601. 49671. 5174. o
6704 1 4 2 10 44601. 49671. 5174. o
6705 2 4 2 10 42344. 40701. 5129. o
6705 1 4 2 -10 42344. 40701. 5129. o
6706 1 5 2 10 13347. 14828. 3293. o
6707 1 5 2 -10 13806. 10374. 3359. o
6708 1 6 2 10 10673. 14035. 2986. o
6709 1 6 2 -10 10538. 14340. 3169. o
6710 1 7 2 10 27381. 27642. 3050. o
6711 1 7 2 -10 26806. 25140. 3055. o
6712 2 2 3 -10 316758. 350136. 4637. o
6712 1 8 2 10 316758. 350136. 4637. o
6713 2 2 3 10 319499. 321518. 5276. o
6713 1 8 2 -10 319499. 321518. 5276. o
6714 1 9 2 10 34056. 41799. 2655. o
6715 1 9 2 -10 34349. 31120. 2878. o
6716 1 10 2 10 22573. 25018. 2618. o
6717 1 10 2 -10 22618. 24469. 2681. o
6718 1 11 2 10 90. 488. 2380. <
6719 1 11 2 -10 116. 671. 2502. <
6720 2 0 4 -10 73572. 80486. 4053. o
6720 1 12 2 10 73572. 80486. 4053. o
6721 2 0 4 10 73420. 76825. 3765. o
6721 1 12 2 -10 73420. 76825. 3765. o
6722 1 13 2 10 58350. 60899. 2424. o
6723 1 13 2 -10 59086. 59739. 2314. o
6724 1 14 2 10 17447. 16048. 2382. o
6725 1 14 2 -10 17362. 16842. 2137. o
6726 1 15 2 10 34855. 33622. 2141. o
6727 1 15 2 -10 34729. 39236. 2238. o
6728 2 -2 5 -10 98987. 103186. 4858. o
6728 1 16 2 10 98987. 103186. 4858. o
6729 2 -2 5 10 101138. 110752. 3523. o
6729 1 16 2 -10 101138. 110752. 3523. o
6730 1 17 2 10 15506. 19893. 2248. o
6731 1 17 2 -10 16063. 18184. 2070. o
6732 1 18 2 10 52026. 52234. 3233. o
6733 1 18 2 -10 52320. 55895. 2049. o
6734 1 19 2 10 32274. 34782. 3288. o
6735 1 19 2 -10 32660. 31365. 2019. o
6736 2 -4 6 -10 146236. 148829. 5657. o
6736 1 20 2 10 146236. 148829. 5657. o
6737 2 -4 6 10 149282. 158532. 2859. o
6737 1 20 2 -10 149282. 158532. 2859. o
6738 1 21 2 10 4851. 6224. 3172. <
6739 1 21 2 -10 4883. 6895. 1646. o
6740 1 22 2 10 19138. 16964. 3176. o
6741 1 22 2 -10 18975. 23493. 1693. o
6742 1 23 2 10 10592. 10374. 3112. o
6743 1 23 2 -10 10408. 11411. 1646. o
6744 2 -6 7 -10 1097. 9580. 4695. o
6744 1 24 2 10 1097. 9580. 4695. o
6745 2 -6 7 10 1148. 4393. 2562. <
6745 1 24 2 -10 1148. 4393. 2562. <
6746 1 25 2 10 11980. 9885. 2992. o
6747 1 25 2 -10 11866. 12570. 1585. o
6748 1 26 2 10 10728. 11960. 2928. o
6749 1 26 2 -10 10790. 11960. 1584. o
6750 1 27 2 10 4713. 5309. 2929. <
6751 1 27 2 -10 4775. 4516. 1587. o
6752 2 -8 8 -10 26058. 31243. 4323. o
6752 1 28 2 10 26058. 31243. 4323. o
6753 2 -8 8 10 25171. 25507. 2562. o
6753 1 28 2 -10 25171. 25507. 2562. o
6754 1 29 2 10 2761. 4638. 3050. <
6755 1 29 2 -10 2702. 427. 1648. <
6756 1 30 2 10 9144. 19954. 2974. o
6757 1 30 2 -10 9143. 9153. 1709. o
6758 1 31 2 10 305. 8177. 2986. o
6759 1 31 2 -10 313. 3539. 1707. o
6760 2 -10 9 -10 33323. 33561. 4637. o
6760 1 32 2 10 33323. 33561. 4637. o
6761 2 -10 9 10 33986. 28863. 2700. o
6761 1 32 2 -10 33986. 28863. 2700. o
6762 1 33 2 10 2941. 7811. 3109. o
6763 1 33 2 -10 2949. 9336. 1640. o
6764 2 24 -6 -10 1920. 3844. 4027. <
6764 1 -30 3 10 1920. 3844. 4027. <
6765 2 24 -6 10 1908. 4638. 2257. o
6765 1 -30 3 -10 1908. 4638. 2257. o
6766 2 22 -5 -10 126247. 124482. 4407. o
6766 1 -26 3 10 126247. 124482. 4407. o
6767 2 22 -5 10 124737. 120638. 2614. o
6767 1 -26 3 -10 124737. 120638. 2614. o
6768 2 20 -4 -10 38715. 35819. 4461. o
6768 1 -22 3 10 38715. 35819. 4461. o
6769 2 20 -4 10 38695. 35941. 2270. o
6769 1 -22 3 -10 38695. 35941. 2270. o
6770 2 18 -3 -10 29381. 29595. 4881. o
6770 1 -18 3 10 29381. 29595. 4881. o
6771 2 18 -3 10 29587. 29290. 2930. o
6771 1 -18 3 -10 29587. 29290. 2930. o
6772 2 16 -2 -10 325194. 324691. 3916. o
6772 1 -14 3 10 325194. 324691. 3916. o
6773 2 16 -2 10 323089. 346109. 3473. o
6773 1 -14 3 -10 323089. 346109. 3473. o
6774 2 14 -1 -10 295417. 310778. 4099. o
6774 1 -10 3 10 295417. 310778. 4099. o
6775 2 14 -1 10 297220. 306446. 4157. o
6775 1 -10 3 -10 297220. 306446. 4157. o
6776 2 12 0 -10 24012. 30266. 4627. o
6776 1 -6 3 10 24012. 30266. 4627. o
6777 2 12 0 10 23891. 25385. 4391. o
6777 1 -6 3 -10 23891. 25385. 4391. o
6778 2 10 1 -10 160421. 180804. 4874. o
6778 1 -2 3 10 160421. 180804. 4874. o
6779 2 10 1 10 158538. 160301. 5233. o
6779 1 -2 3 -10 158538. 160301. 5233. o
6780 1 0 3 10 37552. 35880. 4763. o
6781 1 0 3 -10 37733. 37040. 4761. o
6782 1 1 3 10 23830. 20564. 3423. o
6783 1 1 3 -10 22706. 20930. 3664. o
6784 2 8 2 -10 177408. 178302. 5729. o
6784 1 2 3 10 177408. 178302. 5729. o
6785 2 8 2 10 175276. 165732. 5871. o
6785 1 2 3 -10 175276. 165732. 5871. o
6786 1 3 3 10 10641. 11350. 3050. o
6787 1 3 3 -10 10349. 9153. 3235. o
6788 1 4 3 10 842. 1403. 3051. <
6789 1 4 3 -10 838. 488. 3417. <
6790 1 5 3 10 109374. 117038. 3348. o
6791 1 5 3 -10 109913. 113010. 3636. o
6792 2 6 3 -10 20894. 16048. 4947. o
6792 1 6 3 10 20894. 16048. 4947. o
6793 2 6 3 10 20759. 19954. 5066. o
6793 1 6 3 -10 20759. 19954. 5066. o
6794 1 7 3 10 47020. 53576. 3145. o
6795 1 7 3 -10 47439. 49671. 3103. o
6796 1 8 3 10 12136. 10312. 2870. o
6797 1 8 3 -10 12050. 13058. 2867. o
6798 1 9 3 10 33223. 32036. 2689. o
6799 1 9 3 -10 32987. 31853. 2810. o
6800 2 4 4 -10 242265. 252930. 4545. o
6800 1 10 3 10 242265. 252930. 4545. o
6801 2 4 4 10 242994. 252686. 4873. o
6801 1 10 3 -10 242994. 252686. 4873. o
6802 1 11 3 10 110043. 116916. 2794. o
6803 1 11 3 -10 110373. 116488. 2927. o
6804 1 12 3 10 125193. 131133. 2608. o
6805 1 12 3 -10 124734. 133391. 2761. o
6806 1 13 3 10 20221. 18367. 2445. o
6807 1 13 3 -10 19560. 18672. 2321. o
6808 2 2 5 -10 336690. 343119. 4510. o
6808 1 14 3 10 336690. 343119. 4510. o
6809 2 2 5 10 335138. 354530. 4232. o
6809 1 14 3 -10 335138. 354530. 4232. o
6810 1 15 3 10 29048. 27459. 2628. o
6811 1 15 3 -10 28562. 31609. 2369. o
6812 1 16 3 10 9130. 9275. 2685. o
6813 1 16 3 -10 9081. 10374. 2134. o
6814 1 17 3 10 41008. 46925. 2782. o
6815 1 17 3 -10 41200. 40762. 2016. o
6816 2 0 6 -10 35380. 30327. 6109. o
6816 1 18 3 10 35380. 30327. 6109. o
6817 2 0 6 10 35634. 32402. 2696. o
6817 1 18 3 -10 35634. 32402. 2696. o
6818 1 19 3 10 11942. 11594. 3478. o
6819 1 19 3 -10 11607. 14645. 1702. o
6820 1 20 3 10 18424. 22578. 3349. o
6821 1 20 3 -10 18343. 19038. 1707. o
6822 1 21 3 10 8185. 12692. 3352. o
6823 1 21 3 -10 8071. 7384. 1709. o
6824 2 -2 7 -10 37151. 34965. 5069. o
6824 1 22 3 10 37151. 34965. 5069. o
6825 2 -2 7 10 37214. 37711. 2927. o
6825 1 22 3 -10 37214. 37711. 2927. o
6826 1 23 3 10 25. -2685. 3417. <
6827 1 23 3 -10 45. 1220. 1647. <
6828 1 24 3 10 6974. 4577. 3174. <
6829 1 24 3 -10 6954. 10496. 1642. o
6830 1 25 3 10 7319. 6773. 3173. o
6831 1 25 3 -10 7141. 6285. 1648. o
6832 2 -4 8 -10 112574. 130706. 5256. o
6832 1 26 3 10 112574. 130706. 5256. o
6833 2 -4 8 10 111239. 122041. 2810. o
6833 1 26 3 -10 111239. 122041. 2810. o
6834 1 27 3 10 10581. 11899. 3111. o
6835 1 27 3 -10 10729. 8421. 1712. o
6836 1 28 3 10 6469. 10923. 3108. o
6837 1 28 3 -10 6474. 8055. 1646. o
6838 1 29 3 10 7232. 11045. 3109. o
6839 1 29 3 -10 7284. 9214. 1584. o
6840 2 -6 9 -10 1298. 4638. 4210. <
6840 1 30 3 10 1298. 4638. 4210. <
6841 2 -6 9 10 1295. 7628. 2498. o
6841 1 30 3 -10 1295. 7628. 2498. o
6842 1 31 3 10 20911. 12204. 3123. o
6843 1 31 3 -10 20938. 18855. 1776. o
6844 1 32 3 10 2460. 8360. 3170. o
6845 1 32 3 -10 2466. 7261. 1643. o
6846 2 26 -5 -10 6403. 976. 3723. <
6846 1 -28 4 10 6403. 976. 3723. <
6847 2 26 -5 10 6264. 8482. 2256. o
6847 1 -28 4 -10 6264. 8482. 2256. o
6848 2 24 -4 -10 34488. 36124. 4573. o
6848 1 -24 4 10 34488. 36124. 4573. o
6849 2 24 -4 10 34402. 37833. 2304. o
6849 1 -24 4 -10 34402. 37833. 2304. o
6850 2 22 -3 -10 36224. 39908. 4629. o
6850 1 -20 4 10 36224. 39908. 4629. o
6851 2 22 -3 10 36601. 36795. 2501. o
6851 1 -20 4 -10 36601. 36795. 2501. o
6852 2 20 -2 -10 84325. 88114. 3391. o
6852 1 -16 4 10 84325. 88114. 3391. o
6853 2 20 -2 10 82160. 87198. 3198. o
6853 1 -16 4 -10 82160. 87198. 3198. o
6854 2 18 -1 -10 34212. 31853. 3423. o
6854 1 -12 4 10 34212. 31853. 3423. o
6855 2 18 -1 10 34096. 36063. 3289. o
6855 1 -12 4 -10 34096. 36063. 3289. o
6856 2 16 0 -10 45256. 46071. 3720. o
6856 1 -8 4 10 45256. 46071. 3720. o
6857 2 16 0 10 47338. 46437. 3786. o
6857 1 -8 4 -10 47338. 46437. 3786. o
6858 2 14 1 -10 145413. 162071. 4926. o
6858 1 -4 4 10 145413. 162071. 4926. o
6859 2 14 1 10 146854. 158654. 4594. o
6859 1 -4 4 -10 146854. 158654. 4594. o
6860 2 12 2 -10 152003. 159569. 5125. o
6860 1 0 4 10 152003. 159569. 5125. o
6861 2 12 2 10 152277. 154748. 5412. o
6861 1 0 4 -10 152277. 154748. 5412. o
6862 1 1 4 10 10002. 12204. 3354. o
6863 1 1 4 -10 9868. 11106. 3477. o
6864 1 2 4 10 27246. 29168. 3291. o
6865 1 2 4 -10 27464. 31853. 3529. o
6866 1 3 4 10 68874. 71943. 3523. o
6867 1 3 4 -10 68808. 64133. 3320. o
6868 2 10 3 -10 124516. 140408. 4825. o
6868 1 4 4 10 124516. 140408. 4825. o
6869 2 10 3 10 124807. 109166. 5518. o
6869 1 4 4 -10 124807. 109166. 5518. o
6870 1 5 4 10 133336. 145961. 3338. o
6871 1 5 4 -10 133940. 131438. 3564. o
6872 1 6 4 10 35598. 37711. 2861. o
6873 1 6 4 -10 35753. 35697. 3356. o
6874 1 7 4 10 43573. 44667. 2925. o
6875 1 7 4 -10 45142. 42409. 3183. o
6876 2 8 4 -10 23589. 22944. 4028. o
6876 1 8 4 10 23589. 22944. 4028. o
6877 2 8 4 10 24610. 27276. 4878. o
6877 1 8 4 -10 24610. 27276. 4878. o
6878 1 9 4 10 18856. 20503. 2621. o
6879 1 9 4 -10 18794. 21174. 2802. o
6880 1 10 4 10 12509. 11045. 2565. o
6881 1 10 4 -10 12478. 10496. 2626. o
6882 1 11 4 10 19854. 20808. 2500. o
6883 1 11 4 -10 19499. 23188. 2616. o
6884 2 6 5 -10 32796. 32219. 4395. o
6884 1 12 4 10 32796. 32219. 4395. o
6885 2 6 5 10 32741. 33317. 4270. o
6885 1 12 4 -10 32741. 33317. 4270. o
6886 1 13 4 10 35049. 37589. 2982. o
6887 1 13 4 -10 34522. 36185. 2679. o
6888 1 14 4 10 38848. 38687. 2869. o
6889 1 14 4 -10 39091. 37833. 2203. o
6890 1 15 4 10 11248. 12448. 2928. o
6891 1 15 4 -10 11376. 13364. 2010. o
6892 2 4 6 -10 54467. 54796. 5613. o
6892 1 16 4 10 54467. 54796. 5613. o
6893 2 4 6 10 53004. 61875. 2943. o
6893 1 16 4 -10 53004. 61875. 2943. o
6894 1 17 4 10 6957. 4943. 3479. <
6895 1 17 4 -10 6586. 8177. 1951. o
6896 1 18 4 10 22215. 25568. 3594. o
6897 1 18 4 -10 22279. 25812. 1818. o
6898 1 19 4 10 19939. 21113. 3537. o
6899 1 19 4 -10 19788. 24225. 1816. o
6900 2 2 7 -10 34082. 28130. 5683. o
6900 1 20 4 10 34082. 28130. 5683. o
6901 2 2 7 10 34473. 34050. 2564. o
6901 1 20 4 -10 34473. 34050. 2564. o
6902 1 21 4 10 20005. 20198. 3478. o
6903 1 21 4 -10 19983. 21479. 1704. o
6904 1 22 4 10 17873. 16659. 3419. o
6905 1 22 4 -10 17863. 20137. 1763. o
6906 1 23 4 10 1529. 4516. 3233. <
6907 1 23 4 -10 1605. 976. 1648. <
6908 2 0 8 -10 40704. 43081. 5243. o
6908 1 24 4 10 40704. 43081. 5243. o
6909 2 0 8 10 40608. 35026. 2705. o
6909 1 24 4 -10 40608. 35026. 2705. o
6910 1 25 4 10 39459. 39480. 3417. o
6911 1 25 4 -10 39575. 40396. 1887. o
6912 1 26 4 10 10117. 9153. 3357. o
6913 1 26 4 -10 10098. 11838. 1644. o
6914 1 27 4 10 14371. 11106. 3359. o
6915 1 27 4 -10 14466. 15804. 1766. o
6916 2 -2 9 -10 2467. 15072. 5241. o
6916 1 28 4 10 2467. 15072. 5241. o
6917 2 -2 9 10 2331. 10801. 2617. o
6917 1 28 4 -10 2331. 10801. 2617. o
6918 1 29 4 10 13588. 15194. 3415. o
6919 1 29 4 -10 13896. 17818. 1698. o
6920 1 30 4 10 493. 2807. 3478. <
6921 1 30 4 -10 524. 5614. 1767. o
6922 1 31 4 10 10954. 11106. 3234. o
6923 1 31 4 -10 11168. 13730. 1826. o
6924 2 28 -4 -10 19213. 20137. 4514. o
6924 1 -26 5 10 19213. 20137. 4514. o
6925 2 28 -4 10 19237. 18855. 2442. o
6925 1 -26 5 -10 19237. 18855. 2442. o
6926 2 26 -3 -10 87914. 87626. 4761. o
6926 1 -22 5 10 87914. 87626. 4761. o
6927 2 26 -3 10 88921. 91958. 2657. o
6927 1 -22 5 -10 88921. 91958. 2657. o
6928 2 24 -2 -10 6315. 2746. 4699. <
6928 1 -18 5 10 6315. 2746. 4699. <
6929 2 24 -2 10 6184. 7994. 2623. o
6929 1 -18 5 -10 6184. 7994. 2623. o
6930 2 22 -1 -10 75135. 76581. 3409. o
6930 1 -14 5 10 75135. 76581. 3409. o
6931 2 22 -1 10 74166. 77435. 3643. o
6931 1 -14 5 -10 74166. 77435. 3643. o
6932 2 20 0 -10 90373. 94582. 3571. o
6932 1 -10 5 10 90373. 94582. 3571. o
6933 2 20 0 10 89909. 89151. 3788. o
6933 1 -10 5 -10 89909. 89151. 3788. o
6934 2 18 1 -10 9321. 14523. 3901. o
6934 1 -6 5 10 9321. 14523. 3901. o
6935 2 18 1 10 9145. 14035. 3596. o
6935 1 -6 5 -10 9145. 14035. 3596. o
6936 2 16 2 -10 143012. 141690. 5075. o
6936 1 -2 5 10 143012. 141690. 5075. o
6937 2 16 2 10 142035. 139371. 4598. o
6937 1 -2 5 -10 142035. 139371. 4598. o
6938 1 0 5 10 195245. 208080. 5301. o
6939 1 0 5 -10 194159. 199415. 5195. o
6940 1 1 5 10 38744. 38870. 3295. o
6941 1 1 5 -10 37921. 39053. 3230. o
6942 2 14 3 -10 193086. 211314. 5117. o
6942 1 2 5 10 193086. 211314. 5117. o
6943 2 14 3 10 192901. 201368. 5595. o
6943 1 2 5 -10 192901. 201368. 5595. o
6944 1 3 5 10 28544. 27886. 3053. o
6945 1 3 5 -10 28634. 26727. 3177. o
6946 1 4 5 10 5570. 4882. 2868. <
6947 1 4 5 -10 5559. 5126. 3234. <
6948 1 5 5 10 4696. 5431. 2746. <
6949 1 5 5 -10 4665. 5248. 2929. <
6950 2 12 4 -10 13250. 11899. 4028. o
6950 1 6 5 10 13250. 11899. 4028. o
6951 2 12 4 10 13122. 10129. 5310. <
6951 1 6 5 -10 13122. 10129. 5310. <
6952 1 7 5 10 31800. 32097. 2745. o
6953 1 7 5 -10 31660. 25202. 3188. o
6954 1 8 5 10 51440. 54858. 2667. o
6955 1 8 5 -10 51209. 54980. 3340. o
6956 1 9 5 10 19296. 21296. 2681. o
6957 1 9 5 -10 19229. 22090. 2985. o
6958 2 10 5 -10 63180. 63339. 6956. o
6958 1 10 5 10 63180. 63339. 6956. o
6959 2 10 5 10 63039. 64865. 5547. o
6959 1 10 5 -10 63039. 64865. 5547. o
6960 1 11 5 10 2450. -2136. 2929. <
6961 1 11 5 -10 2699. 671. 2929. <
6962 1 12 5 10 14318. 8909. 3117. o
6963 1 12 5 -10 14168. 15072. 2439. o
6964 1 13 5 10 58942. 61448. 3160. o
6965 1 13 5 -10 57693. 62180. 2596. o
6966 2 8 6 -10 48908. 43935. 5929. o
6966 1 14 5 10 48908. 43935. 5929. o
6967 2 8 6 10 48088. 51929. 3525. o
6967 1 14 5 -10 48088. 51929. 3525. o
6968 1 15 5 10 28099. 24896. 3606. o
6969 1 15 5 -10 28352. 27093. 2262. o
6970 1 16 5 10 7627. 11411. 3781. o
6971 1 16 5 -10 7741. 8909. 2257. o
6972 1 17 5 10 912. -2441. 4027. <
6973 1 17 5 -10 941. 2136. 1891. <
6974 2 6 7 -10 6223. 12509. 5244. o
6974 1 18 5 10 6223. 12509. 5244. o
6975 2 6 7 10 6106. 7567. 3050. o
6975 1 18 5 -10 6106. 7567. 3050. o
6976 1 19 5 10 9175. 14035. 3840. o
6977 1 19 5 -10 9282. 8360. 1893. o
6978 1 20 5 10 5895. 2929. 3540. <
6979 1 20 5 -10 5843. 5248. 1709. o
6980 1 21 5 10 4173. 7384. 3416. o
6981 1 21 5 -10 4134. 6224. 1768. o
6982 2 4 8 -10 64443. 60288. 5870. o
6982 1 22 5 10 64443. 60288. 5870. o
6983 2 4 8 10 65180. 68282. 2664. o
6983 1 22 5 -10 65180. 68282. 2664. o
6984 1 23 5 10 46084. 36795. 3749. o
6985 1 23 5 -10 46174. 49305. 1994. o
6986 1 24 5 10 49054. 50098. 3719. o
6987 1 24 5 -10 48700. 54430. 1849. o
6988 1 25 5 10 6015. 4455. 3418. <
6989 1 25 5 -10 6060. 11045. 1824. o
6990 2 2 9 -10 18821. 18550. 5187. o
6990 1 26 5 10 18821. 18550. 5187. o
6991 2 2 9 10 18818. 18733. 2929. o
6991 1 26 5 -10 18818. 18733. 2929. o
6992 1 27 5 10 13638. 12753. 3662. o
6993 1 27 5 -10 13340. 11899. 1894. o
6994 1 28 5 10 13019. 9031. 3359. o
6995 1 28 5 -10 12946. 13974. 1767. o
6996 1 29 5 10 6232. 5126. 3479. <
6997 1 29 5 -10 6298. 10618. 1947. o
6998 2 30 -3 -10 6051. 10007. 4758. o
6998 1 -24 6 10 6051. 10007. 4758. o
6999 2 30 -3 10 6104. 9214. 2499. o
6999 1 -24 6 -10 6104. 9214. 2499. o
7000 2 28 -2 -10 22871. 18794. 4703. o
7000 1 -20 6 10 22871. 18794. 4703. o
7001 2 28 -2 10 23540. 23981. 2562. o
7001 1 -20 6 -10 23540. 23981. 2562. o
7002 2 26 -1 -10 39388. 36307. 5010. o
7002 1 -16 6 10 39388. 36307. 5010. o
7003 2 26 -1 10 39176. 45643. 2780. o
7003 1 -16 6 -10 39176. 45643. 2780. o
7004 2 24 0 -10 65174. 63889. 3424. o
7004 1 -12 6 10 65174. 63889. 3424. o
7005 2 24 0 10 65479. 65170. 3602. o
7005 1 -12 6 -10 65479. 65170. 3602. o
7006 2 22 1 -10 40744. 43264. 3959. o
7006 1 -8 6 10 40744. 43264. 3959. o
7007 2 22 1 10 40882. 41311. 3538. o
7007 1 -8 6 -10 40882. 41311. 3538. o
7008 2 20 2 -10 39809. 42348. 4570. o
7008 1 -4 6 10 39809. 42348. 4570. o
7009 2 20 2 10 38881. 37467. 4275. o
7009 1 -4 6 -10 38881. 37467. 4275. o
7010 2 18 3 -10 57274. 51074. 4839. o
7010 1 0 6 10 57274. 51074. 4839. o
7011 2 18 3 10 57258. 60655. 4932. o
7011 1 0 6 -10 57258. 60655. 4932. o
7012 1 1 6 10 9118. 11411. 3110. o
7013 1 1 6 -10 9177. 10801. 3111. o
7014 1 2 6 10 28684. 31853. 3348. o
7015 1 2 6 -10 28652. 28741. 3295. o
7016 1 3 6 10 20939. 23371. 3168. o
7017 1 3 6 -10 20645. 24286. 3349. o
7018 2 16 4 -10 19284. 26361. 4689. o
7018 1 4 6 10 19284. 26361. 4689. o
7019 2 16 4 10 19320. 23859. 5243. o
7019 1 4 6 -10 19320. 23859. 5243. o
7020 1 5 6 10 13180. 13424. 3173. o
7021 1 5 6 -10 12574. 14279. 3293. o
7022 1 6 6 10 37137. 38199. 3231. o
7023 1 6 6 -10 37917. 34660. 3365. o
7024 1 7 6 10 138117. 132476. 3897. o
7025 1 7 6 -10 138069. 146450. 3885. o
7026 2 14 5 -10 21683. 23615. 6588. o
7026 1 8 6 10 21683. 23615. 6588. o
7027 2 14 5 10 22207. 25934. 4449. o
7027 1 8 6 -10 22207. 25934. 4449. o
7028 1 9 6 10 23508. 25568. 3047. o
7029 1 9 6 -10 23364. 25140. 3047. o
7030 1 10 6 10 9816. 11350. 3111. o
7031 1 10 6 -10 9817. 12082. 3049. o
7032 1 11 6 10 5556. 8421. 3171. o
7033 1 11 6 -10 5650. 6407. 2990. o
7034 2 12 6 -10 62831. 71760. 5953. o
7034 1 12 6 10 62831. 71760. 5953. o
7035 2 12 6 10 63013. 63828. 4329. o
7035 1 12 6 -10 63013. 63828. 4329. o
7036 1 13 6 10 16653. 20442. 3045. o
7037 1 13 6 -10 16760. 15194. 2748. o
7038 1 14 6 10 11209. 6163. 4030. <
7039 1 14 6 -10 11337. 10618. 2625. o
7040 1 15 6 10 26268. 28924. 4267. o
7041 1 15 6 -10 26504. 26788. 2257. o
7042 2 10 7 -10 12902. 10312. 6530. <
7042 1 16 6 10 12902. 10312. 6530. <
7043 2 10 7 10 12384. 17696. 3472. o
7043 1 16 6 -10 12384. 17696. 3472. o
7044 1 17 6 10 94104. 88785. 4544. o
7045 1 17 6 -10 94818. 92568. 2343. o
7046 1 18 6 10 16650. 16903. 3783. o
7047 1 18 6 -10 16887. 16964. 2136. o
7048 1 19 6 10 13545. 14279. 4149. o
7049 1 19 6 -10 14056. 13974. 2014. o
7050 2 8 8 -10 18498. 17330. 6591. o
7050 1 20 6 10 18498. 17330. 6591. o
7051 2 8 8 10 18950. 18977. 3234. o
7051 1 20 6 -10 18950. 18977. 3234. o
7052 1 21 6 10 1023. 2136. 3966. <
7053 1 21 6 -10 1110. 3295. 1952. <
7054 1 22 6 10 3657. 4271. 3600. <
7055 1 22 6 -10 3672. 4332. 1952. o
7056 1 23 6 10 10236. 11655. 3538. o
7057 1 23 6 -10 10182. 11594. 1951. o
7058 2 6 9 -10 6577. 1892. 5554. <
7058 1 24 6 10 6577. 1892. 5554. <
7059 2 6 9 10 6629. 6590. 2929. o
7059 1 24 6 -10 6629. 6590. 2929. o
7060 1 25 6 10 11558. 11594. 3661. o
7061 1 25 6 -10 11515. 10496. 1954. o
7062 1 26 6 10 5403. 6956. 3599. <
7063 1 26 6 -10 5373. 9641. 2009. o
7064 1 27 6 10 497. 6163. 3904. <
7065 1 27 6 -10 453. 4332. 1890. o
7066 2 32 -2 -10 21043. 19405. 5066. o
7066 1 -22 7 10 21043. 19405. 5066. o
7067 2 32 -2 10 20902. 18184. 2812. o
7067 1 -22 7 -10 20902. 18184. 2812. o
7068 2 30 -1 -10 4649. 3478. 5675. <
7068 1 -18 7 10 4649. 3478. 5675. <
7069 2 30 -1 10 4566. 4699. 2685. <
7069 1 -18 7 -10 4566. 4699. 2685. <
7070 2 28 0 -10 26920. 13852. 5686. o
7070 1 -14 7 10 26920. 13852. 5686. o
7071 2 28 0 10 26820. 27459. 2927. o
7071 1 -14 7 -10 26820. 27459. 2927. o
7072 2 26 1 -10 35706. 30205. 3796. o
7072 1 -10 7 10 35706. 30205. 3796. o
7073 2 26 1 10 36197. 34660. 3787. o
7073 1 -10 7 -10 36197. 34660. 3787. o
7074 2 24 2 -10 822. 3722. 3844. <
7074 1 -6 7 10 822. 3722. 3844. <
7075 2 24 2 10 791. -2319. 3478. <
7075 1 -6 7 -10 791. -2319. 3478. <
7076 2 22 3 -10 29163. 29717. 4759. o
7076 1 -2 7 10 29163. 29717. 4759. o
7077 2 22 3 10 29150. 30998. 4756. o
7077 1 -2 7 -10 29150. 30998. 4756. o
7078 1 0 7 10 24374. 24164. 4821. o
7079 1 0 7 -10 23538. 23310. 4699. o
7080 1 1 7 10 11459. 14096. 3537. o
7081 1 1 7 -10 11382. 14889. 3536. o
7082 2 20 4 -10 28592. 34843. 5237. o
7082 1 2 7 10 28592. 34843. 5237. o
7083 2 20 4 10 28509. 21845. 5865. o
7083 1 2 7 -10 28509. 21845. 5865. o
7084 1 3 7 10 12585. 13058. 3661. o
7085 1 3 7 -10 12737. 9946. 3602. o
7086 1 4 7 10 18296. 18062. 3601. o
7087 1 4 7 -10 18254. 14828. 3300. o
7088 1 5 7 10 2350. 4210. 3478. <
7089 1 5 7 -10 2355. 3783. 3539. <
7090 2 18 5 -10 1882. 1281. 5553. <
7090 1 6 7 10 1882. 1281. 5553. <
7091 2 18 5 10 1887. 1403. 6102. <
7091 1 6 7 -10 1887. 1403. 6102. <
7092 1 7 7 10 2221. 2746. 2990. <
7093 1 7 7 -10 2193. 4027. 3173. <
7094 1 8 7 10 30. 5492. 3049. <
7095 1 8 7 -10 33. -976. 2990. <
7096 1 9 7 10 29103. 28924. 3418. o
7097 1 9 7 -10 29351. 27276. 3422. o
7098 2 16 6 -10 9897. 7628. 5371. <
7098 1 10 7 10 9897. 7628. 5371. <
7099 2 16 6 10 10233. 6529. 6103. <
7099 1 10 7 -10 10233. 6529. 6103. <
7100 1 11 7 10 39856. 34477. 4405. o
7101 1 11 7 -10 39675. 39846. 3234. o
7102 1 12 7 10 66169. 63584. 4343. o
7103 1 12 7 -10 65634. 62607. 3129. o
7104 1 13 7 10 4728. 3661. 4150. <
7105 1 13 7 -10 5029. 6529. 2318. o
7106 2 14 7 -10 30260. 28619. 5677. o
7106 1 14 7 10 30260. 28619. 5677. o
7107 2 14 7 10 30255. 29595. 5920. o
7107 1 14 7 -10 30255. 29595. 5920. o
7108 1 15 7 10 10127. 7567. 3724. o
7109 1 15 7 -10 10073. 11838. 3477. o
7110 1 16 7 10 9243. 7261. 4333. <
7111 1 16 7 -10 9085. 10434. 3233. o
7112 1 17 7 10 3684. 12204. 4450. o
7113 1 17 7 -10 3730. 7506. 2560. o
7114 2 12 8 -10 2515. 7017. 5918. <
7114 1 18 7 10 2515. 7017. 5918. <
7115 2 12 8 10 2494. 976. 4150. <
7115 1 18 7 -10 2494. 976. 4150. <
7116 1 19 7 10 1734. 8116. 4269. <
7117 1 19 7 -10 1734. 4760. 2317. o
7118 1 20 7 10 13335. 10252. 4335. o
7119 1 20 7 -10 13258. 15438. 2376. o
7120 1 21 7 10 7196. 7689. 3661. o
7121 1 21 7 -10 7076. 9763. 2255. o
7122 2 10 9 -10 16257. 10557. 7264. <
7122 1 22 7 10 16257. 10557. 7264. <
7123 2 10 9 10 16276. 11533. 3483. o
7123 1 22 7 -10 16276. 11533. 3483. o
7124 1 23 7 10 4194. 11106. 4145. o
7125 1 23 7 -10 4391. 7017. 2134. o
7126 1 24 7 10 2150. 7445. 3842. <
7127 1 24 7 -10 2011. 6407. 2133. o
7128 2 32 0 -10 14573. 12448. 5737. o
7128 1 -16 8 10 14573. 12448. 5737. o
7129 2 32 0 10 14195. 10190. 2872. o
7129 1 -16 8 -10 14195. 10190. 2872. o
7130 2 30 1 -10 10162. 4943. 6043. <
7130 1 -12 8 10 10162. 4943. 6043. <
7131 2 30 1 10 10056. 7811. 2748. o
7131 1 -12 8 -10 10056. 7811. 2748. o
7132 2 28 2 -10 8896. 9031. 7322. <
7132 1 -8 8 10 8896. 9031. 7322. <
7133 2 28 2 10 9240. 10618. 3904. o
7133 1 -8 8 -10 9240. 10618. 3904. o
7134 2 26 3 -10 25042. 30327. 5607. o
7134 1 -4 8 10 25042. 30327. 5607. o
7135 2 26 3 10 25236. 22090. 6532. o
7135 1 -4 8 -10 25236. 22090. 6532. o
7136 2 24 4 -10 62956. 70540. 5344. o
7136 1 0 8 10 62956. 70540. 5344. o
7137 2 24 4 10 62923. 36185. 7184. o
7137 1 0 8 -10 62923. 36185. 7184. o
7138 1 1 8 10 8394. 4027. 3480. <
7139 1 1 8 -10 8476. 6590. 4455. <
7140 1 2 8 10 364. 4760. 3355. <
7141 1 2 8 -10 358. 3051. 4393. <
7142 1 3 8 10 2397. 3173. 3600. <
7143 1 3 8 -10 2488. -1403. 4393. <
7144 2 22 5 -10 15264. 11106. 5982. <
7144 1 4 8 10 15264. 11106. 5982. <
7145 2 22 5 10 15014. 12570. 7263. <
7145 1 4 8 -10 15014. 12570. 7263. <
7146 1 5 8 10 124974. 118014. 4988. o
7147 1 5 8 -10 125481. 82561. 5162. o
7148 1 6 8 10 38932. 32829. 3920. o
7149 1 6 8 -10 39852. 23188. 4786. o
7150 1 7 8 10 7077. 8421. 3660. o
7151 1 7 8 -10 6760. 4271. 4333. <
7152 2 20 6 -10 7591. 8299. 5675. <
7152 1 8 8 10 7591. 8299. 5675. <
7153 2 20 6 10 7649. 9214. 6346. <
7153 1 8 8 -10 7649. 9214. 6346. <
7154 1 9 8 10 451. 2807. 4515. <
7155 1 9 8 -10 466. 2075. 2929. <
7156 1 10 8 10 4685. 5858. 4698. <
7157 1 10 8 -10 4661. 6590. 2684. o
7158 1 11 8 10 746. 4943. 4698. <
7159 1 11 8 -10 763. 2380. 2624. <
7160 2 18 7 -10 6851. 4943. 6591. <
7160 1 12 8 10 6851. 4943. 6591. <
7161 1 13 8 10 6311. 2136. 4150. <
7162 1 13 8 -10 6388. 6895. 2685. o
7163 1 14 8 10 3876. 9275. 4452. o
7164 1 14 8 -10 3919. 7872. 2682. o
7165 1 15 8 10 10269. 10862. 4820. o
7166 1 15 8 -10 10126. 10434. 2379. o
7167 2 16 8 -10 6226. 6651. 7322. <
7167 1 16 8 10 6226. 6651. 7322. <
7168 2 16 8 10 6158. 2380. 5065. <
7168 1 16 8 -10 6158. 2380. 5065. <
7169 1 17 8 10 20107. 20442. 4576. o
7170 1 17 8 -10 19599. 13974. 2572. o
7171 1 18 8 10 6977. 9031. 4881. <
7172 1 18 8 -10 7178. 6773. 2441. o
7173 1 19 8 10 30105. 15621. 5324. o
7174 1 19 8 -10 30178. 29656. 2625. o
7175 2 32 2 -10 16317. 18855. 5062. o
7175 1 -10 9 10 16317. 18855. 5062. o
7176 2 32 2 10 16077. 16537. 4149. o
7176 1 -10 9 -10 16077. 16537. 4149. o
7177 2 30 3 -10 3192. 3295. 6956. <
7177 1 -6 9 10 3192. 3295. 6956. <
7178 2 30 3 10 3196. 3478. 7261. <
7178 1 -6 9 -10 3196. 3478. 7261. <
7179 2 28 4 -10 899. 4943. 4698. <
7179 1 -2 9 10 899. 4943. 4698. <
7180 2 28 4 10 912. 5370. 6956. <
7180 1 -2 9 -10 912. 5370. 6956. <
7181 1 0 9 10 26203. 22517. 5374. o
7182 1 0 9 -10 25725. 10618. 6965. <
7183 1 1 9 10 1365. 4210. 3538. <
7184 1 1 9 -10 1471. 3173. 4637. <
7185 2 26 5 -10 4415. 2441. 5248. <
7185 1 2 9 10 4415. 2441. 5248. <
7186 2 26 5 10 4400. 4638. 6712. <
7186 1 2 9 -10 4400. 4638. 6712. <
7187 1 3 9 10 20901. 18611. 3786. o
7188 1 3 9 -10 20966. 10801. 5133. o
7189 1 4 9 10 5006. 3844. 5980. <
7190 1 4 9 -10 5088. 7078. 4942. <
7191 1 5 9 10 2891. 1342. 5797. <
7192 1 5 9 -10 2915. 8604. 5063. <
7193 2 24 6 10 4324. 6773. 6834. <
7193 1 6 9 -10 4324. 6773. 6834. <
7194 1 7 9 10 30. 2136. 6285. <
7195 1 7 9 -10 31. 5675. 3415. <
7196 1 8 9 10 7402. 4882. 4333. <
7197 1 8 9 -10 7411. 7322. 3539. o
7198 1 9 9 10 3888. 5126. 4088. <
7199 1 9 9 -10 3925. 5736. 3050. <
7200 2 22 7 -10 12568. 9519. 6164. <
7200 1 10 9 10 12568. 9519. 6164. <
7201 2 22 7 10 12464. 3844. 6166. <
7201 1 10 9 -10 12464. 3844. 6166. <
7202 1 11 9 10 5890. 3478. 3357. <
7203 1 11 9 -10 6142. 8482. 3355. o
7204 1 12 9 10 12913. 9946. 3481. o
7205 1 12 9 -10 12487. 12204. 3356. o
7206 1 13 9 10 15598. 15865. 3600. o
7207 1 13 9 -10 15585. 13791. 3419. o
7208 1 2 0 11 33940. 32829. 4640. o
7209 1 2 0 -11 33188. 23920. 4652. o
7210 2 -2 1 -11 476795. 488043. 5732. o
7210 1 4 0 11 476795. 488043. 5732. o
7211 2 -2 1 11 478870. 467418. 6157. o
7211 1 4 0 -11 478870. 467418. 6157. o
7212 1 6 0 11 12794. 14889. 4209. o
7213 1 6 0 -11 12654. 14950. 4269. o
7214 2 -4 2 -11 170786. 188615. 4191. o
7214 1 8 0 11 170786. 188615. 4191. o
7215 2 -4 2 11 175294. 175251. 4394. o
7215 1 8 0 -11 175294. 175251. 4394. o
7216 1 10 0 11 66436. 71516. 3635. o
7217 1 10 0 -11 67405. 65353. 3732. o
7218 2 -6 3 -11 62552. 60899. 3182. o
7218 1 12 0 11 62552. 60899. 3182. o
7219 2 -6 3 11 61030. 64194. 3402. o
7219 1 12 0 -11 61030. 64194. 3402. o
7220 1 14 0 11 109967. 118624. 3150. o
7221 1 14 0 -11 110139. 122407. 3239. o
7222 2 -8 4 -11 50908. 45521. 2771. o
7222 1 16 0 11 50908. 45521. 2771. o
7223 2 -8 4 11 48245. 52539. 2725. o
7223 1 16 0 -11 48245. 52539. 2725. o
7224 1 18 0 11 18920. 17757. 2687. o
7225 1 18 0 -11 18707. 17452. 2809. o
7226 2 -10 5 -11 66172. 72126. 4307. o
7226 1 20 0 11 66172. 72126. 4307. o
7227 2 -10 5 11 65415. 69625. 2471. o
7227 1 20 0 -11 65415. 69625. 2471. o
7228 1 22 0 11 12323. 9519. 3785. o
7229 1 22 0 -11 12142. 12021. 2136. o
7230 2 -12 6 -11 60448. 61875. 4144. o
7230 1 24 0 11 60448. 61875. 4144. o
7231 2 -12 6 11 60280. 67001. 2455. o
7231 1 24 0 -11 60280. 67001. 2455. o
7232 1 26 0 11 23852. 24225. 3600. o
7233 1 26 0 -11 23705. 25262. 2192. o
7234 2 -14 7 -11 25882. 26727. 4209. o
7234 1 28 0 11 25882. 26727. 4209. o
7235 2 -14 7 11 25313. 25446. 2196. o
7235 1 28 0 -11 25313. 25446. 2196. o
7236 1 30 0 11 16811. 10618. 4094. o
7237 1 30 0 -11 17090. 16842. 2319. o
7238 2 -16 8 -11 43247. 38504. 4344. o
7238 1 32 0 11 43247. 38504. 4344. o
7239 2 -16 8 11 43705. 38321. 2464. o
7239 1 32 0 -11 43705. 38321. 2464. o
7240 2 18 -7 -11 8563. 12082. 4025. o
7240 1 -30 1 11 8563. 12082. 4025. o
7241 2 18 -7 11 8857. 8360. 2258. o
7241 1 -30 1 -11 8857. 8360. 2258. o
7242 2 16 -6 -11 58208. 54674. 4223. o
7242 1 -26 1 11 58208. 54674. 4223. o
7243 2 16 -6 11 57620. 52356. 2351. o
7243 1 -26 1 -11 57620. 52356. 2351. o
7244 2 14 -5 -11 124591. 119906. 4004. o
7244 1 -22 1 11 124591. 119906. 4004. o
7245 2 14 -5 11 125313. 130950. 2360. o
7245 1 -22 1 -11 125313. 130950. 2360. o
7246 2 12 -4 -11 12994. 17391. 2739. o
7246 1 -18 1 11 12994. 17391. 2739. o
7247 2 12 -4 11 13476. 8909. 2751. o
7247 1 -18 1 -11 13476. 8909. 2751. o
7248 2 10 -3 -11 336456. 330061. 3989. o
7248 1 -14 1 11 336456. 330061. 3989. o
7249 2 10 -3 11 333510. 357154. 3437. o
7249 1 -14 1 -11 333510. 357154. 3437. o
7250 2 8 -2 -11 216773. 227302. 3932. o
7250 1 -10 1 11 216773. 227302. 3932. o
7251 2 8 -2 11 218379. 225349. 4048. o
7251 1 -10 1 -11 218379. 225349. 4048. o
7252 2 6 -1 -11 31111. 33928. 4205. o
7252 1 -6 1 11 31111. 33928. 4205. o
7253 2 6 -1 11 31750. 34355. 4205. o
7253 1 -6 1 -11 31750. 34355. 4205. o
7254 2 4 0 -11 533311. 390227. 8230. o
7254 1 -2 1 11 533311. 390227. 8230. o
7255 2 4 0 11 533130. 398160. 8270. o
7255 1 -2 1 -11 533130. 398160. 8270. o
7256 1 1 1 11 8513. 6224. 3418. <
7257 1 1 1 -11 8617. 5919. 3480. <
7258 2 2 1 -11 548296. 548697. 6459. o
7258 1 2 1 11 548296. 548697. 6459. o
7259 2 2 1 11 548513. 558339. 6303. o
7259 1 2 1 -11 548513. 558339. 6303. o
7260 1 3 1 11 21582. 20137. 3298. o
7261 1 3 1 -11 21686. 20137. 3359. o
7262 1 4 1 11 11606. 10984. 3174. o
7263 1 4 1 -11 11196. 8482. 3175. o
7264 1 5 1 11 110049. 116183. 3176. o
7265 1 5 1 -11 110686. 114353. 3261. o
7266 1 6 1 11 25469. 37711. 4123. o
7267 1 6 1 -11 26283. 25873. 4333. o
7268 1 7 1 11 54454. 56932. 2794. o
7269 1 7 1 -11 54636. 60105. 2900. o
7270 1 8 1 11 14578. 15011. 2684. o
7271 1 8 1 -11 14439. 12143. 2688. o
7272 1 9 1 11 39272. 46315. 2592. o
7273 1 9 1 -11 39052. 46620. 2652. o
7274 2 -2 3 -11 202413. 223091. 3917. o
7274 1 10 1 11 202413. 223091. 3917. o
7275 2 -2 3 11 203955. 211131. 4114. o
7275 1 10 1 -11 203955. 211131. 4114. o
7276 1 11 1 11 17746. 16598. 2321. o
7277 1 11 1 -11 17750. 17940. 2318. o
7278 1 12 1 11 2490. 3356. 2257. <
7279 1 12 1 -11 2497. 4943. 2318. o
7280 1 13 1 11 71561. 71882. 2316. o
7281 1 13 1 -11 71049. 72187. 2493. o
7282 2 -4 4 -11 277133. 297781. 3608. o
7282 1 14 1 11 277133. 297781. 3608. o
7283 2 -4 4 11 274231. 308581. 3578. o
7283 1 14 1 -11 274231. 308581. 3578. o
7284 1 15 1 11 29733. 33256. 2122. o
7285 1 15 1 -11 29758. 32524. 2186. o
7286 1 16 1 11 5253. 4821. 1953. o
7287 1 16 1 -11 5071. 9397. 2070. o
7288 1 17 1 11 24765. 25629. 2072. o
7289 1 17 1 -11 24746. 26971. 2067. o
7290 2 -6 5 -11 15750. 11167. 4336. o
7290 1 18 1 11 15750. 11167. 4336. o
7291 2 -6 5 11 16130. 9946. 3118. o
7291 1 18 1 -11 16130. 9946. 3118. o
7292 1 19 1 11 11460. 9763. 2809. o
7293 1 19 1 -11 11532. 12570. 2134. o
7294 1 20 1 11 58. 2258. 2929. <
7295 1 20 1 -11 53. 2075. 1830. <
7296 1 21 1 11 4848. 9641. 2742. o
7297 1 21 1 -11 4876. 4760. 1648. o
7298 2 -8 6 -11 108857. 110142. 4752. o
7298 1 22 1 11 108857. 110142. 4752. o
7299 2 -8 6 11 109551. 122773. 2654. o
7299 1 22 1 -11 109551. 122773. 2654. o
7300 1 23 1 11 2217. 1220. 2746. <
7301 1 23 1 -11 2204. 4577. 1585. o
7302 1 24 1 11 281. 8543. 2436. o
7303 1 24 1 -11 241. 671. 1586. <
7304 1 25 1 11 28197. 28375. 2806. o
7305 1 25 1 -11 28294. 28924. 1645. o
7306 2 -10 7 -11 63934. 59922. 4530. o
7306 1 26 1 11 63934. 59922. 4530. o
7307 2 -10 7 11 63386. 68221. 2591. o
7307 1 26 1 -11 63386. 68221. 2591. o
7308 1 27 1 11 9228. 5370. 2748. <
7309 1 27 1 -11 9148. 10740. 1645. o
7310 1 28 1 11 2496. 7200. 2682. o
7311 1 28 1 -11 2478. 5858. 1584. o
7312 1 29 1 11 9722. 9336. 2868. o
7313 1 29 1 -11 9690. 8116. 1650. o
7314 2 -12 8 -11 8034. 7322. 4028. <
7314 1 30 1 11 8034. 7322. 4028. <
7315 2 -12 8 11 8341. 11350. 2437. o
7315 1 30 1 -11 8341. 11350. 2437. o
7316 1 31 1 11 11990. 8482. 2932. o
7317 1 31 1 -11 12007. 12570. 1646. o
7318 1 32 1 11 1390. 6712. 2866. o
7319 1 32 1 -11 1435. 7567. 1642. o
7320 1 33 1 11 15233. 12692. 3054. o
7321 1 33 1 -11 15289. 15011. 1709. o
7322 2 22 -7 -11 9602. 9702. 3966. o
7322 1 -32 2 11 9602. 9702. 3966. o
7323 2 22 -7 11 9701. 11472. 2317. o
7323 1 -32 2 -11 9701. 11472. 2317. o
7324 2 20 -6 -11 30290. 22822. 3614. o
7324 1 -28 2 11 30290. 22822. 3614. o
7325 2 20 -6 11 29734. 29046. 2260. o
7325 1 -28 2 -11 29734. 29046. 2260. o
7326 2 18 -5 -11 35065. 29717. 3978. o
7326 1 -24 2 11 35065. 29717. 3978. o
7327 2 18 -5 11 34450. 34355. 2136. o
7327 1 -24 2 -11 34450. 34355. 2136. o
7328 2 16 -4 -11 126778. 128998. 4682. o
7328 1 -20 2 11 126778. 128998. 4682. o
7329 2 16 -4 11 129177. 145107. 2980. o
7329 1 -20 2 -11 129177. 145107. 2980. o
7330 2 14 -3 -11 148552. 146999. 3192. o
7330 1 -16 2 11 148552. 146999. 3192. o
7331 2 14 -3 11 149815. 150294. 3228. o
7331 1 -16 2 -11 149815. 150294. 3228. o
7332 2 12 -2 -11 61761. 64926. 2972. o
7332 1 -12 2 11 61761. 64926. 2972. o
7333 2 12 -2 11 61083. 64316. 3033. o
7333 1 -12 2 -11 61083. 64316. 3033. o
7334 2 10 -1 -11 219499. 239201. 4041. o
7334 1 -8 2 11 219499. 239201. 4041. o
7335 2 10 -1 11 218852. 239628. 3958. o
7335 1 -8 2 -11 218852. 239628. 3958. o
7336 2 8 0 -11 110450. 124726. 4538. o
7336 1 -4 2 11 110450. 124726. 4538. o
7337 2 8 0 11 107501. 108251. 4511. o
7337 1 -4 2 -11 107501. 108251. 4511. o
7338 1 1 2 11 4497. 4943. 3417. <
7339 1 1 2 -11 4374. 4210. 3844. <
7340 1 2 2 11 109745. 105383. 3695. o
7341 1 2 2 -11 110531. 104162. 4012. o
7342 1 3 2 11 27548. 24469. 3301. o
7343 1 3 2 -11 26880. 26483. 3479. o
7344 2 4 2 -11 92332. 92019. 4883. o
7344 1 4 2 11 92332. 92019. 4883. o
7345 2 4 2 11 90700. 81218. 5470. o
7345 1 4 2 -11 90700. 81218. 5470. o
7346 1 5 2 11 21346. 26727. 3101. o
7347 1 5 2 -11 21292. 17696. 3362. o
7348 1 6 2 11 3102. 3844. 2807. <
7349 1 6 2 -11 3056. 5126. 2928. <
7350 1 7 2 11 21753. 21174. 2747. o
7351 1 7 2 -11 22065. 19527. 2812. o
7352 2 2 3 -11 205445. 230780. 4301. o
7352 1 8 2 11 205445. 230780. 4301. o
7353 2 2 3 11 205132. 217050. 4741. o
7353 1 8 2 -11 205132. 217050. 4741. o
7354 1 9 2 11 49635. 55468. 2530. o
7355 1 9 2 -11 50049. 55712. 2778. o
7356 1 10 2 11 11944. 16354. 2434. o
7357 1 10 2 -11 11741. 12143. 2501. o
7358 1 11 2 11 30456. 29656. 2382. o
7359 1 11 2 -11 30741. 33012. 2433. o
7360 1 12 2 11 50999. 57542. 3573. o
7361 1 12 2 -11 50136. 53088. 3650. o
7362 1 13 2 11 20705. 21540. 2195. o
7363 1 13 2 -11 20522. 21235. 2378. o
7364 1 14 2 11 19055. 18062. 2138. o
7365 1 14 2 -11 18987. 19160. 2257. o
7366 1 15 2 11 17897. 18306. 2135. o
7367 1 15 2 -11 18422. 13424. 2206. o
7368 2 -2 5 -11 169304. 173970. 3726. o
7368 1 16 2 11 169304. 173970. 3726. o
7369 2 -2 5 11 170427. 188676. 3606. o
7369 1 16 2 -11 170427. 188676. 3606. o
7370 1 17 2 11 39866. 44301. 2482. o
7371 1 17 2 -11 39989. 42470. 2246. o
7372 1 18 2 11 17423. 17757. 2440. o
7373 1 18 2 -11 17634. 19588. 2131. o
7374 1 19 2 11 10434. 11899. 3172. o
7375 1 19 2 -11 10368. 8543. 1833. o
7376 2 -4 6 -11 123691. 125031. 5300. o
7376 1 20 2 11 123691. 125031. 5300. o
7377 2 -4 6 11 126000. 132537. 2725. o
7377 1 20 2 -11 126000. 132537. 2725. o
7378 1 21 2 11 2376. 2136. 3112. <
7379 1 21 2 -11 2415. 2990. 1647. <
7380 1 22 2 11 18045. 18977. 3294. o
7381 1 22 2 -11 18355. 16842. 1713. o
7382 1 23 2 11 4169. 10801. 3168. o
7383 1 23 2 -11 4241. 6834. 1645. o
7384 2 -6 7 -11 36160. 35026. 4884. o
7384 1 24 2 11 36160. 35026. 4884. o
7385 2 -6 7 11 35535. 46925. 3008. o
7385 1 24 2 -11 35535. 46925. 3008. o
7386 1 25 2 11 2420. 4882. 2928. <
7387 1 25 2 -11 2356. 3722. 1769. o
7388 1 26 2 11 16964. 15987. 3052. o
7389 1 26 2 -11 17050. 17513. 1646. o
7390 1 27 2 11 10906. 11594. 2867. o
7391 1 27 2 -11 10793. 12448. 1583. o
7392 2 -8 8 -11 29875. 19832. 4773. o
7392 1 28 2 11 29875. 19832. 4773. o
7393 2 -8 8 11 29391. 37528. 2657. o
7393 1 28 2 -11 29391. 37528. 2657. o
7394 1 29 2 11 1398. 2319. 2990. <
7395 1 29 2 -11 1347. 366. 1648. <
7396 1 30 2 11 4153. 7384. 3049. o
7397 1 30 2 -11 4052. 8116. 1704. o
7398 1 31 2 11 1893. 3417. 3112. <
7399 1 31 2 -11 1910. 8177. 1641. o
7400 2 -10 9 -11 10896. 14279. 4635. o
7400 1 32 2 11 10896. 14279. 4635. o
7401 2 -10 9 11 11012. 12509. 2622. o
7401 1 32 2 -11 11012. 12509. 2622. o
7402 1 33 2 11 7787. 4332. 2992. <
7403 1 33 2 -11 7871. 10007. 1828. o
7404 2 24 -6 -11 10340. 6041. 4151. <
7404 1 -30 3 11 10340. 6041. 4151. <
7405 2 24 -6 11 10424. 7628. 2200. o
7405 1 -30 3 -11 10424. 7628. 2200. o
7406 2 22 -5 -11 101780. 99769. 4406. o
7406 1 -26 3 11 101780. 99769. 4406. o
7407 2 22 -5 11 101182. 102026. 2493. o
7407 1 -26 3 -11 101182. 102026. 2493. o
7408 2 20 -4 -11 27995. 35331. 4073. o
7408 1 -22 3 11 27995. 35331. 4073. o
7409 2 20 -4 11 28408. 31182. 2248. o
7409 1 -22 3 -11 28408. 31182. 2248. o
7410 2 18 -3 -11 68798. 61509. 3272. o
7410 1 -18 3 11 68798. 61509. 3272. o
7411 2 18 -3 11 69621. 69503. 3174. o
7411 1 -18 3 -11 69621. 69503. 3174. o
7412 2 16 -2 -11 131204. 140530. 3316. o
7412 1 -14 3 11 131204. 140530. 3316. o
7413 2 16 -2 11 130217. 144253. 3516. o
7413 1 -14 3 -11 130217. 144253. 3516. o
7414 2 14 -1 -11 427657. 446000. 4419. o
7414 1 -10 3 11 427657. 446000. 4419. o
7415 2 14 -1 11 429644. 456312. 3891. o
7415 1 -10 3 -11 429644. 456312. 3891. o
7416 2 12 0 -11 38946. 43081. 4016. o
7416 1 -6 3 11 38946. 43081. 4016. o
7417 2 12 0 11 38953. 43691. 3892. o
7417 1 -6 3 -11 38953. 43691. 3892. o
7418 2 10 1 -11 152164. 156457. 5152. o
7418 1 -2 3 11 152164. 156457. 5152. o
7419 2 10 1 11 151817. 141568. 4722. o
7419 1 -2 3 -11 151817. 141568. 4722. o
7420 1 1 3 11 3086. 7689. 3049. o
7421 1 1 3 -11 3155. 1220. 3051. <
7422 2 8 2 -11 152449. 167074. 5126. o
7422 1 2 3 11 152449. 167074. 5126. o
7423 2 8 2 11 152500. 144680. 5185. o
7423 1 2 3 -11 152500. 144680. 5185. o
7424 1 3 3 11 79388. 77984. 3487. o
7425 1 3 3 -11 78673. 76947. 3671. o
7426 1 4 3 11 8549. 11533. 3109. o
7427 1 4 3 -11 8382. 9702. 3355. o
7428 1 5 3 11 37750. 42653. 2972. o
7429 1 5 3 -11 37278. 36856. 3174. o
7430 2 6 3 -11 32885. 36246. 4509. o
7430 1 6 3 11 32885. 36246. 4509. o
7431 2 6 3 11 32623. 29839. 4825. o
7431 1 6 3 -11 32623. 29839. 4825. o
7432 1 7 3 11 26054. 31609. 2791. o
7433 1 7 3 -11 25839. 30632. 3039. o
7434 1 8 3 11 19333. 25324. 2794. o
7435 1 8 3 -11 19352. 22090. 2863. o
7436 1 9 3 11 72701. 80547. 2811. o
7437 1 9 3 -11 74218. 73774. 2993. o
7438 2 4 4 -11 394654. 430928. 4336. o
7438 1 10 3 11 394654. 430928. 4336. o
7439 2 4 4 11 395814. 413537. 4933. o
7439 1 10 3 -11 395814. 413537. 4933. o
7440 1 11 3 11 55819. 58397. 2609. o
7441 1 11 3 -11 55563. 53698. 2634. o
7442 1 12 3 11 4920. 6834. 2378. o
7443 1 12 3 -11 5039. 8055. 2500. o
7444 1 13 3 11 26536. 27154. 2439. o
7445 1 13 3 -11 27063. 27093. 2441. o
7446 2 2 5 -11 146733. 162254. 3799. o
7446 1 14 3 11 146733. 162254. 3799. o
7447 2 2 5 11 146003. 152124. 4276. o
7447 1 14 3 -11 146003. 152124. 4276. o
7448 1 15 3 11 21106. 23920. 2373. o
7449 1 15 3 -11 20792. 24713. 2431. o
7450 1 16 3 11 7538. 11472. 2742. o
7451 1 16 3 -11 7355. 8787. 2440. o
7452 1 17 3 11 19384. 22883. 2677. o
7453 1 17 3 -11 19355. 24286. 2060. o
7454 1 18 3 11 56455. 61631. 5538. o
7455 1 18 3 -11 57503. 57664. 2745. o
7456 1 19 3 11 31108. 35453. 3528. o
7457 1 19 3 -11 31022. 34660. 1998. o
7458 1 20 3 11 15242. 18428. 3596. o
7459 1 20 3 -11 15282. 15560. 1891. o
7460 1 21 3 11 2077. 2197. 3295. <
7461 1 21 3 -11 2128. 4577. 1829. o
7462 2 -2 7 -11 30266. 22456. 5075. o
7462 1 22 3 11 30266. 22456. 5075. o
7463 2 -2 7 11 30594. 32097. 2802. o
7463 1 22 3 -11 30594. 32097. 2802. o
7464 1 23 3 11 7264. 8909. 3172. o
7465 1 23 3 -11 7425. 6163. 1710. o
7466 1 24 3 11 9665. 4516. 3176. <
7467 1 24 3 -11 9456. 7567. 1650. o
7468 1 25 3 11 14446. 8665. 3056. o
7469 1 25 3 -11 14343. 15316. 1706. o
7470 2 -4 8 -11 92737. 97633. 5408. o
7470 1 26 3 11 92737. 97633. 5408. o
7471 2 -4 8 11 92124. 94216. 2973. o
7471 1 26 3 -11 92124. 94216. 2973. o
7472 1 27 3 11 5866. 7200. 3111. o
7473 1 27 3 -11 5772. 5919. 1708. o
7474 1 28 3 11 16802. 16048. 3235. o
7475 1 28 3 -11 16773. 19893. 1699. o
7476 1 29 3 11 3060. 3234. 3112. <
7477 1 29 3 -11 3090. 7811. 1643. o
7478 2 -6 9 -11 9935. 16232. 4816. o
7478 1 30 3 11 9935. 16232. 4816. o
7479 2 -6 9 11 10002. 11045. 2562. o
7479 1 30 3 -11 10002. 11045. 2562. o
7480 1 31 3 11 2379. 8177. 3170. o
7481 1 31 3 -11 2377. 8360. 1703. o
7482 1 32 3 11 286. 5858. 3171. <
7483 1 32 3 -11 274. 2807. 1647. <
7484 2 26 -5 -11 25003. 17086. 4525. o
7484 1 -28 4 11 25003. 17086. 4525. o
7485 2 26 -5 11 25033. 20869. 2208. o
7485 1 -28 4 -11 25033. 20869. 2208. o
7486 2 24 -4 -11 59169. 58763. 4761. o
7486 1 -24 4 11 59169. 58763. 4761. o
7487 2 24 -4 11 58746. 58824. 2501. o
7487 1 -24 4 -11 58746. 58824. 2501. o
7488 2 22 -3 -11 19391. 16048. 4580. o
7488 1 -20 4 11 19391. 16048. 4580. o
7489 2 22 -3 11 19194. 19222. 2380. o
7489 1 -20 4 -11 19194. 19222. 2380. o
7490 2 20 -2 -11 69187. 71516. 3343. o
7490 1 -16 4 11 69187. 71516. 3343. o
7491 2 20 -2 11 67906. 65780. 3367. o
7491 1 -16 4 -11 67906. 65780. 3367. o
7492 2 18 -1 -11 19344. 17696. 3298. o
7492 1 -12 4 11 19344. 17696. 3298. o
7493 2 18 -1 11 18969. 28741. 3459. o
7493 1 -12 4 -11 18969. 28741. 3459. o
7494 2 16 0 -11 15166. 18916. 4023. o
7494 1 -8 4 11 15166. 18916. 4023. o
7495 2 16 0 11 16188. 17940. 3415. o
7495 1 -8 4 -11 16188. 17940. 3415. o
7496 2 14 1 -11 151773. 180621. 4669. o
7496 1 -4 4 11 151773. 180621. 4669. o
7497 2 14 1 11 153557. 168234. 4623. o
7497 1 -4 4 -11 153557. 168234. 4623. o
7498 1 1 4 11 107192. 107152. 3479. o
7499 1 1 4 -11 107687. 114963. 3663. o
7500 1 2 4 11 4670. 6468. 3172. o
7501 1 2 4 -11 4694. 8299. 3232. o
7502 1 3 4 11 105777. 112583. 3358. o
7503 1 3 4 -11 106941. 106054. 3607. o
7504 2 10 3 -11 177953. 198622. 4852. o
7504 1 4 4 11 177953. 198622. 4852. o
7505 2 10 3 11 178870. 138822. 5319. o
7505 1 4 4 -11 178870. 138822. 5319. o
7506 1 5 4 11 103997. 117831. 3166. o
7507 1 5 4 -11 104014. 100379. 3446. o
7508 1 6 4 11 3951. 3722. 2868. <
7509 1 6 4 -11 3871. 366. 2929. <
7510 1 7 4 11 18258. 21845. 2739. o
7511 1 7 4 -11 18426. 19466. 3110. o
7512 2 8 4 -11 6275. 10496. 3720. o
7512 1 8 4 11 6275. 10496. 3720. o
7513 2 8 4 11 6647. 13608. 4572. o
7513 1 8 4 -11 6647. 13608. 4572. o
7514 1 9 4 11 2173. 915. 2624. <
7515 1 9 4 -11 2140. 2929. 2685. <
7516 1 10 4 11 29028. 32646. 2612. o
7517 1 10 4 -11 29227. 28497. 2870. o
7518 1 11 4 11 6429. 6773. 2563. o
7519 1 11 4 -11 6287. 8360. 2500. o
7520 2 6 5 -11 23651. 23981. 3966. o
7520 1 12 4 11 23651. 23981. 3966. o
7521 2 6 5 11 23326. 28863. 3834. o
7521 1 12 4 -11 23326. 28863. 3834. o
7522 1 13 4 11 1976. 2807. 2502. <
7523 1 13 4 -11 1924. 3661. 2379. <
7524 1 14 4 11 21573. 19771. 2993. o
7525 1 14 4 -11 21584. 25934. 2552. o
7526 1 15 4 11 62200. 70845. 2875. o
7527 1 15 4 -11 61385. 65658. 2225. o
7528 2 4 6 -11 49615. 57604. 5593. o
7528 1 16 4 11 49615. 57604. 5593. o
7529 2 4 6 11 48894. 51868. 3038. o
7529 1 16 4 -11 48894. 51868. 3038. o
7530 1 17 4 11 15390. 16842. 2866. o
7531 1 17 4 -11 15225. 15926. 2134. o
7532 1 18 4 11 714. 4699. 3599. <
7533 1 18 4 -11 770. 427. 2075. <
7534 1 19 4 11 19528. 20930. 3659. o
7535 1 19 4 -11 19653. 21113. 1826. o
7536 2 2 7 -11 19180. 16537. 6226. o
7536 1 20 4 11 19180. 16537. 6226. o
7537 2 2 7 11 19006. 15499. 2630. o
7537 1 20 4 -11 19006. 15499. 2630. o
7538 1 21 4 11 29447. 31609. 3656. o
7539 1 21 4 -11 29606. 31243. 1823. o
7540 1 22 4 11 4403. 7200. 3477. o
7541 1 22 4 -11 4236. 4393. 1708. o
7542 1 23 4 11 11866. 18123. 3348. o
7543 1 23 4 -11 11731. 13791. 1704. o
7544 1 24 4 11 48808. 55407. 5291. o
7545 1 24 4 -11 48269. 55163. 2896. o
7546 1 25 4 11 165. 5553. 3477. <
7547 1 25 4 -11 162. -732. 1709. <
7548 1 26 4 11 11944. 18611. 3531. o
7549 1 26 4 -11 11852. 14523. 1764. o
7550 1 27 4 11 4699. 9702. 3414. o
7551 1 27 4 -11 4735. 7994. 1766. o
7552 2 -2 9 -11 26087. 13242. 5259. o
7552 1 28 4 11 26087. 13242. 5259. o
7553 2 -2 9 11 26078. 24835. 2749. o
7553 1 28 4 -11 26078. 24835. 2749. o
7554 1 29 4 11 13860. 17391. 3413. o
7555 1 29 4 -11 13908. 13058. 1832. o
7556 1 30 4 11 487. 6041. 3415. <
7557 1 30 4 -11 503. 5492. 1767. o
7558 2 28 -4 -11 10720. 3417. 4579. <
7558 1 -26 5 11 10720. 3417. 4579. <
7559 2 28 -4 11 10476. 12204. 2439. o
7559 1 -26 5 -11 10476. 12204. 2439. o
7560 2 26 -3 -11 67743. 56993. 5038. o
7560 1 -22 5 11 67743. 56993. 5038. o
7561 2 26 -3 11 67865. 70906. 2664. o
7561 1 -22 5 -11 67865. 70906. 2664. o
7562 2 24 -2 -11 10082. 7384. 4761. <
7562 1 -18 5 11 10082. 7384. 4761. <
7563 2 24 -2 11 10162. 15194. 2617. o
7563 1 -18 5 -11 10162. 15194. 2617. o
7564 2 22 -1 -11 97018. 99769. 3825. o
7564 1 -14 5 11 97018. 99769. 3825. o
7565 2 22 -1 11 96816. 110691. 3363. o
7565 1 -14 5 -11 96816. 110691. 3363. o
7566 2 20 0 -11 28025. 28436. 3660. o
7566 1 -10 5 11 28025. 28436. 3660. o
7567 2 20 0 11 28427. 28070. 3357. o
7567 1 -10 5 -11 28427. 28070. 3357. o
7568 2 18 1 -11 31616. 39175. 3580. o
7568 1 -6 5 11 31616. 39175. 3580. o
7569 2 18 1 11 31713. 33683. 3412. o
7569 1 -6 5 -11 31713. 33683. 3412. o
7570 2 16 2 -11 226403. 235662. 5324. o
7570 1 -2 5 11 226403. 235662. 5324. o
7571 2 16 2 11 226070. 212779. 5215. o
7571 1 -2 5 -11 226070. 212779. 5215. o
7572 1 1 5 11 46587. 48938. 3286. o
7573 1 1 5 -11 46036. 50952. 3214. o
7574 2 14 3 -11 221211. 219186. 5149. o
7574 1 2 5 11 221211. 219186. 5149. o
7575 2 14 3 11 221274. 228278. 5909. o
7575 1 2 5 -11 221274. 228278. 5909. o
7576 1 3 5 11 69006. 71455. 3097. o
7577 1 3 5 -11 69433. 64438. 3322. o
7578 1 4 5 11 32843. 34050. 2925. o
7579 1 4 5 -11 32647. 30205. 3179. o
7580 1 5 5 11 11102. 12936. 2927. o
7581 1 5 5 -11 11239. 14462. 3231. o
7582 2 12 4 -11 33175. 39541. 4134. o
7582 1 6 5 11 33175. 39541. 4134. o
7583 2 12 4 11 33422. 34660. 5001. o
7583 1 6 5 -11 33422. 34660. 5001. o
7584 1 7 5 11 16941. 17086. 2868. o
7585 1 7 5 -11 17366. 19527. 3047. o
7586 1 8 5 11 17476. 20747. 2740. o
7587 1 8 5 -11 17614. 18489. 3050. o
7588 1 9 5 11 56188. 63156. 2704. o
7589 1 9 5 -11 55513. 59678. 3153. o
7590 2 10 5 -11 17945. 18001. 4271. o
7590 1 10 5 11 17945. 18001. 4271. o
7591 2 10 5 11 18143. 24957. 5057. o
7591 1 10 5 -11 18143. 24957. 5057. o
7592 1 11 5 11 22706. 25690. 2678. o
7593 1 11 5 -11 23075. 24347. 3048. o
7594 1 12 5 11 17774. 15133. 2933. o
7595 1 12 5 -11 17468. 13486. 2813. o
7596 1 13 5 11 565. 2380. 2868. <
7597 1 13 5 -11 536. 427. 2380. <
7598 2 8 6 -11 73760. 80242. 6080. o
7598 1 14 5 11 73760. 80242. 6080. o
7599 2 8 6 11 73693. 77923. 3699. o
7599 1 14 5 -11 73693. 77923. 3699. o
7600 1 15 5 11 12724. 13364. 2867. o
7601 1 15 5 -11 12490. 14340. 2316. o
7602 1 16 5 11 12459. 12814. 2868. o
7603 1 16 5 -11 12564. 14889. 2315. o
7604 1 17 5 11 4392. 4638. 4027. <
7605 1 17 5 -11 4622. 5065. 2135. o
7606 2 6 7 -11 4533. 2990. 5553. <
7606 1 18 5 11 4533. 2990. 5553. <
7607 2 6 7 11 4481. 1098. 3418. <
7607 1 18 5 -11 4481. 1098. 3418. <
7608 1 19 5 11 1643. 2319. 3783. <
7609 1 19 5 -11 1590. 1648. 1953. <
7610 1 20 5 11 3582. 3783. 3417. <
7611 1 20 5 -11 3551. 3966. 1769. o
7612 1 21 5 11 41862. 42287. 3660. o
7613 1 21 5 -11 42315. 44362. 1879. o
7614 2 4 8 -11 49637. 58885. 5773. o
7614 1 22 5 11 49637. 58885. 5773. o
7615 2 4 8 11 49618. 52539. 2977. o
7615 1 22 5 -11 49618. 52539. 2977. o
7616 1 23 5 11 24746. 24286. 3662. o
7617 1 23 5 -11 24419. 26422. 1884. o
7618 1 24 5 11 459. 3661. 3355. <
7619 1 24 5 -11 477. 4149. 1829. o
7620 1 25 5 11 4916. 4455. 3417. <
7621 1 25 5 -11 4968. 7689. 1828. o
7622 2 2 9 -11 7844. 17940. 5607. o
7622 1 26 5 11 7844. 17940. 5607. o
7623 2 2 9 11 7609. 8909. 2806. o
7623 1 26 5 -11 7609. 8909. 2806. o
7624 1 27 5 11 16783. 13730. 3421. o
7625 1 27 5 -11 16569. 16537. 1892. o
7626 1 28 5 11 9597. 9580. 3356. o
7627 1 28 5 -11 9480. 10862. 1890. o
7628 2 30 -3 -11 7416. 8970. 4637. <
7628 1 -24 6 11 7416. 8970. 4637. <
7629 2 30 -3 11 7342. 9397. 2683. o
7629 1 -24 6 -11 7342. 9397. 2683. o
7630 2 28 -2 -11 15152. 18062. 4757. o
7630 1 -20 6 11 15152. 18062. 4757. o
7631 2 28 -2 11 15556. 18916. 2618. o
7631 1 -20 6 -11 15556. 18916. 2618. o
7632 2 26 -1 -11 34000. 27459. 6111. o
7632 1 -16 6 11 34000. 27459. 6111. o
7633 2 26 -1 11 34168. 34050. 3356. o
7633 1 -16 6 -11 34168. 34050. 3356. o
7634 2 24 0 -11 32556. 39114. 3521. o
7634 1 -12 6 11 32556. 39114. 3521. o
7635 2 24 0 11 32472. 35026. 3533. o
7635 1 -12 6 -11 32472. 35026. 3533. o
7636 2 22 1 -11 23869. 32280. 4072. o
7636 1 -8 6 11 23869. 32280. 4072. o
7637 2 22 1 11 23793. 29900. 3710. o
7637 1 -8 6 -11 23793. 29900. 3710. o
7638 2 20 2 -11 54216. 53271. 4640. o
7638 1 -4 6 11 54216. 53271. 4640. o
7639 2 20 2 11 53354. 48878. 4103. o
7639 1 -4 6 -11 53354. 48878. 4103. o
7640 1 1 6 11 22625. 24164. 3353. o
7641 1 1 6 -11 22007. 23066. 3232. o
7642 1 2 6 11 46428. 51196. 3276. o
7643 1 2 6 -11 46298. 45460. 3237. o
7644 1 3 6 11 11949. 12204. 3356. o
7645 1 3 6 -11 11574. 14706. 3108. o
7646 2 16 4 -11 37783. 46193. 4555. o
7646 1 4 6 11 37783. 46193. 4555. o
7647 2 16 4 11 37569. 41067. 5241. o
7647 1 4 6 -11 37569. 41067. 5241. o
7648 1 5 6 11 12138. 12387. 2990. o
7649 1 5 6 -11 12134. 15926. 3291. o
7650 1 6 6 11 6835. 8238. 2928. o
7651 1 6 6 -11 6974. 6224. 3112. <
7652 1 7 6 11 35844. 38931. 3102. o
7653 1 7 6 -11 35883. 40090. 3343. o
7654 2 14 5 -11 16290. 14950. 5554. o
7654 1 8 6 11 16290. 14950. 5554. o
7655 2 14 5 11 16378. 23676. 5423. o
7655 1 8 6 -11 16378. 23676. 5423. o
7656 1 9 6 11 51576. 52844. 3534. o
7657 1 9 6 -11 51873. 49122. 3489. o
7658 1 10 6 11 540. 1892. 2929. <
7659 1 10 6 -11 522. 3539. 2745. <
7660 1 11 6 11 40379. 42837. 3409. o
7661 1 11 6 -11 40723. 41799. 2864. o
7662 2 12 6 -11 25059. 20564. 5741. o
7662 1 12 6 11 25059. 20564. 5741. o
7663 2 12 6 11 24961. 25018. 4088. o
7663 1 12 6 -11 24961. 25018. 4088. o
7664 1 13 6 11 23885. 24408. 2928. o
7665 1 13 6 -11 23971. 24835. 2744. o
7666 1 14 6 11 12268. 11716. 2991. o
7667 1 14 6 -11 12226. 14828. 2559. o
7668 1 15 6 11 50937. 47352. 3917. o
7669 1 15 6 -11 51614. 48145. 2641. o
7670 2 10 7 -11 33330. 21601. 6054. o
7670 1 16 6 11 33330. 21601. 6054. o
7671 2 10 7 11 33405. 28619. 3672. o
7671 1 16 6 -11 33405. 28619. 3672. o
7672 1 17 6 11 57500. 46254. 4246. o
7673 1 17 6 -11 57942. 56383. 2207. o
7674 1 18 6 11 2635. 1403. 4455. <
7675 1 18 6 -11 2585. 3478. 2135. <
7676 1 19 6 11 3228. 5248. 3966. <
7677 1 19 6 -11 3279. 7384. 2255. o
7678 2 8 8 -11 10852. 4638. 7202. <
7678 1 20 6 11 10852. 4638. 7202. <
7679 2 8 8 11 11156. 12387. 3172. o
7679 1 20 6 -11 11156. 12387. 3172. o
7680 1 21 6 11 6800. 10007. 3659. o
7681 1 21 6 -11 6993. 7872. 1952. o
7682 1 22 6 11 5651. 8726. 3415. o
7683 1 22 6 -11 5864. 8116. 1889. o
7684 1 23 6 11 13931. 14828. 3477. o
7685 1 23 6 -11 13848. 15011. 1950. o
7686 2 6 9 -11 6187. 7078. 5614. <
7686 1 24 6 11 6187. 7078. 5614. <
7687 2 6 9 11 6124. 9031. 3110. o
7687 1 24 6 -11 6124. 9031. 3110. o
7688 1 25 6 11 2322. 3234. 3600. <
7689 1 25 6 -11 2253. 5004. 2012. o
7690 1 26 6 11 2929. 4210. 3661. <
7691 1 26 6 -11 2831. 5492. 2012. o
7692 2 32 -2 -11 8785. 12692. 5246. o
7692 1 -22 7 11 8785. 12692. 5246. o
7693 2 32 -2 11 8808. 8238. 2746. o
7693 1 -22 7 -11 8808. 8238. 2746. o
7694 2 30 -1 -11 7435. 11289. 5246. o
7694 1 -18 7 11 7435. 11289. 5246. o
7695 2 30 -1 11 7390. 9031. 2806. o
7695 1 -18 7 -11 7390. 9031. 2806. o
7696 2 28 0 -11 20399. 14096. 5070. o
7696 1 -14 7 11 20399. 14096. 5070. o
7697 2 28 0 11 20413. 20869. 3783. o
7697 1 -14 7 -11 20413. 20869. 3783. o
7698 2 26 1 -11 60643. 57115. 3980. o
7698 1 -10 7 11 60643. 57115. 3980. o
7699 2 26 1 11 60621. 57848. 3916. o
7699 1 -10 7 -11 60621. 57848. 3916. o
7700 2 24 2 -11 15056. 16109. 3965. o
7700 1 -6 7 11 15056. 16109. 3965. o
7701 2 24 2 11 15179. 14828. 4089. o
7701 1 -6 7 -11 15179. 14828. 4089. o
7702 2 22 3 -11 29416. 26483. 4642. o
7702 1 -2 7 11 29416. 26483. 4642. o
7703 2 22 3 11 29614. 30632. 4636. o
7703 1 -2 7 -11 29614. 30632. 4636. o
7704 1 1 7 11 6653. 7139. 3051. o
7705 1 1 7 -11 6742. 11655. 3230. o
7706 2 20 4 -11 26946. 32341. 4873. o
7706 1 2 7 11 26946. 32341. 4873. o
7707 2 20 4 11 27250. 25934. 5006. o
7707 1 2 7 -11 27250. 25934. 5006. o
7708 1 3 7 11 15661. 14096. 3419. o
7709 1 3 7 -11 15278. 13791. 3541. o
7710 1 4 7 11 16967. 19344. 3597. o
7711 1 4 7 -11 17261. 16292. 3845. o
7712 1 5 7 11 4681. 7017. 3416. o
7713 1 5 7 -11 4907. 4271. 3295. <
7714 2 18 5 -11 8443. 13730. 4878. o
7714 1 6 7 11 8443. 13730. 4878. o
7715 2 18 5 11 8445. 3722. 5310. <
7715 1 6 7 -11 8445. 3722. 5310. <
7716 1 7 7 11 1985. 2014. 3234. <
7717 1 7 7 -11 2050. 2380. 3173. <
7718 1 8 7 11 9998. 9336. 3174. o
7719 1 8 7 -11 9990. 12143. 3293. o
7720 1 9 7 11 58268. 51501. 3445. o
7721 1 9 7 -11 58796. 57786. 3483. o
7722 2 16 6 -11 54286. 44972. 5696. o
7722 1 10 7 11 54286. 44972. 5696. o
7723 2 16 6 11 54130. 39908. 6130. o
7723 1 10 7 -11 54130. 39908. 6130. o
7724 1 11 7 11 40027. 34050. 3312. o
7725 1 11 7 -11 39582. 38138. 4275. o
7726 1 12 7 11 7775. 5370. 3052. <
7727 1 12 7 -11 7863. 9336. 3660. o
7728 1 13 7 11 895. 7017. 3903. <
7729 1 13 7 -11 858. 2563. 3356. <
7730 2 14 7 -11 19076. 12082. 6777. <
7730 1 14 7 11 19076. 12082. 6777. <
7731 2 14 7 11 18988. 17208. 7690. o
7731 1 14 7 -11 18988. 17208. 7690. o
7732 1 15 7 11 37723. 40701. 4509. o
7733 1 15 7 -11 37534. 38443. 3292. o
7734 1 16 7 11 37916. 33683. 4281. o
7735 1 16 7 -11 37433. 35636. 2813. o
7736 1 17 7 11 781. 6468. 3904. <
7737 1 17 7 -11 776. 2929. 2562. <
7738 2 12 8 -11 6541. 10923. 6772. <
7738 1 18 7 11 6541. 10923. 6772. <
7739 2 12 8 11 6568. 5736. 4150. <
7739 1 18 7 -11 6568. 5736. 4150. <
7740 1 19 7 11 613. 3722. 4454. <
7741 1 19 7 -11 629. 6346. 2438. o
7742 1 20 7 11 25995. 18367. 3794. o
7743 1 20 7 -11 26451. 21113. 2515. o
7744 1 21 7 11 10532. 12021. 4453. o
7745 1 21 7 -11 10315. 9031. 2442. o
7746 2 10 9 -11 9842. 10862. 6407. <
7746 1 22 7 11 9842. 10862. 6407. <
7747 2 10 9 11 9895. 11960. 3904. o
7747 1 22 7 -11 9895. 11960. 3904. o
7748 1 23 7 11 596. 2624. 4088. <
7749 1 23 7 -11 580. 4577. 2256. o
7750 2 32 0 -11 10038. 15987. 6282. o
7750 1 -16 8 11 10038. 15987. 6282. o
7751 2 32 0 11 9918. 9458. 2807. o
7751 1 -16 8 -11 9918. 9458. 2807. o
7752 2 30 1 -11 5043. 8604. 5735. <
7752 1 -12 8 11 5043. 8604. 5735. <
7753 2 30 1 11 4943. 7261. 2683. o
7753 1 -12 8 -11 4943. 7261. 2683. o
7754 2 28 2 -11 13509. 13364. 4577. o
7754 1 -8 8 11 13509. 13364. 4577. o
7755 2 28 2 11 13585. 11655. 3968. o
7755 1 -8 8 -11 13585. 11655. 3968. o
7756 2 26 3 -11 25486. 22090. 5130. o
7756 1 -4 8 11 25486. 22090. 5130. o
7757 2 26 3 11 25671. 22700. 4885. o
7757 1 -4 8 -11 25671. 22700. 4885. o
7758 1 1 8 11 26914. 27764. 3843. o
7759 1 1 8 -11 27228. 13974. 4895. o
7760 1 2 8 11 9080. 10252. 3905. o
7761 1 2 8 -11 9100. 10801. 4637. o
7762 1 3 8 11 64853. 59495. 4170. o
7763 1 3 8 -11 65190. 45277. 5300. o
7764 2 22 5 -11 16460. 13913. 5738. o
7764 1 4 8 11 16460. 13913. 5738. o
7765 2 22 5 11 16518. 14767. 6469. o
7765 1 4 8 -11 16518. 14767. 6469. o
7766 1 5 8 11 22059. 20869. 3907. o
7767 1 5 8 -11 22307. 15926. 3609. o
7768 1 6 8 11 4917. 6956. 4820. <
7769 1 6 8 -11 4888. 9275. 3537. o
7770 1 7 8 11 634. 2685. 4454. <
7771 1 7 8 -11 625. 1770. 3234. <
7772 2 20 6 -11 9634. 6895. 5981. <
7772 1 8 8 11 9634. 6895. 5981. <
7773 2 20 6 11 9542. 4821. 6408. <
7773 1 8 8 -11 9542. 4821. 6408. <
7774 1 9 8 11 2842. 7322. 3354. o
7775 1 9 8 -11 3040. 2868. 3356. <
7776 1 10 8 11 17856. 13364. 4702. o
7777 1 10 8 -11 17776. 14645. 3299. o
7778 1 11 8 11 21932. 17696. 4764. o
7779 1 11 8 -11 21582. 18611. 3239. o
7780 2 18 7 -11 4672. 854. 6408. <
7780 1 12 8 11 4672. 854. 6408. <
7781 2 18 7 11 4632. 9458. 5673. <
7781 1 12 8 -11 4632. 9458. 5673. <
7782 1 13 8 11 5924. 9275. 4331. o
7783 1 13 8 -11 5783. 6224. 2563. o
7784 1 14 8 11 17985. 6773. 4522. <
7785 1 14 8 -11 17557. 14462. 2872. o
7786 1 15 8 11 7605. 6407. 4577. <
7787 1 15 8 -11 7425. 8055. 2745. o
7788 2 16 8 -11 921. 11533. 7686. <
7788 1 16 8 11 921. 11533. 7686. <
7789 2 16 8 11 904. 3051. 6102. <
7789 1 16 8 -11 904. 3051. 6102. <
7790 1 17 8 11 582. 7628. 4452. <
7791 1 17 8 -11 555. 5065. 2439. o
7792 1 18 8 11 7404. 3173. 4639. <
7793 1 18 8 -11 7394. 9702. 2377. o
7794 1 19 8 11 11614. 9519. 4822. <
7795 1 19 8 -11 11504. 11716. 2441. o
7796 2 32 2 -11 14799. 8787. 4702. <
7796 1 -10 9 11 14799. 8787. 4702. <
7797 2 32 2 11 14746. 16232. 5186. o
7797 1 -10 9 -11 14746. 16232. 5186. o
7798 2 30 3 -11 5429. 3173. 6530. <
7798 1 -6 9 11 5429. 3173. 6530. <
7799 2 30 3 11 5434. 8604. 7139. <
7799 1 -6 9 -11 5434. 8604. 7139. <
7800 2 28 4 -11 15479. 11533. 5677. o
7800 1 -2 9 11 15479. 11533. 5677. o
7801 2 28 4 11 15418. 15926. 6834. o
7801 1 -2 9 -11 15418. 15926. 6834. o
7802 1 1 9 11 3175. 4882. 3722. <
7803 1 1 9 -11 3182. 7384. 4636. <
7804 2 26 5 -11 11545. 7750. 5738. <
7804 1 2 9 11 11545. 7750. 5738. <
7805 2 26 5 11 11533. 12936. 7200. <
7805 1 2 9 -11 11533. 12936. 7200. <
7806 1 3 9 11 23696. 20259. 4154. o
7807 1 3 9 -11 23746. 16720. 5011. o
7808 1 4 9 11 14680. 15804. 3660. o
7809 1 4 9 -11 14480. 14889. 4515. o
7810 1 5 9 11 560. 2990. 4271. <
7811 1 5 9 -11 574. 7139. 4819. <
7812 2 24 6 -11 4609. 6773. 5430. <
7812 1 6 9 11 4609. 6773. 5430. <
7813 2 24 6 11 4642. 6346. 6407. <
7813 1 6 9 -11 4642. 6346. 6407. <
7814 1 7 9 11 3324. 5248. 4393. <
7815 1 7 9 -11 3373. 6773. 4514. <
7816 1 8 9 11 10879. 12509. 4331. o
7817 1 8 9 -11 11202. 12570. 3477. o
7818 1 9 9 11 4044. 8665. 3964. o
7819 1 9 9 -11 3871. 9092. 3536. o
7820 2 22 7 -11 14570. 18306. 5916. o
7820 1 10 9 11 14570. 18306. 5916. o
7821 2 22 7 11 14530. 6285. 5739. <
7821 1 10 9 -11 14530. 6285. 5739. <
7822 1 11 9 11 1789. 6102. 3538. <
7823 1 11 9 -11 1705. 3783. 3905. <
7824 1 12 9 11 11105. 10923. 3478. o
7825 1 12 9 -11 11143. 9458. 3540. o
7826 2 0 0 -12 3921800. 4223480. 82410. o
7826 1 0 0 12 3921800. 4223480. 82410. o
7827 2 0 0 12 3920490. 4132870. 81777. o
7827 1 0 0 -12 3920490. 4132870. 81777. o
7828 1 2 0 12 48990. 50403. 4450. o
7829 1 2 0 -12 50153. 49305. 4518. o
7830 2 -2 1 -12 92204. 86344. 4061. o
7830 1 4 0 12 92204. 86344. 4061. o
7831 2 -2 1 12 92095. 75483. 4654. o
7831 1 4 0 -12 92095. 75483. 4654. o
7832 1 6 0 12 36799. 39236. 3899. o
7833 1 6 0 -12 37028. 33928. 4035. o
7834 2 -4 2 -12 50607. 58824. 3874. o
7834 1 8 0 12 50607. 58824. 3874. o
7835 2 -4 2 12 50068. 50586. 3842. o
7835 1 8 0 -12 50068. 50586. 3842. o
7836 1 10 0 12 26691. 28619. 3291. o
7837 1 10 0 -12 26440. 22822. 3485. o
7838 2 -6 3 -12 272007. 281915. 3776. o
7838 1 12 0 12 272007. 281915. 3776. o
7839 2 -6 3 12 266653. 284051. 3693. o
7839 1 12 0 -12 266653. 284051. 3693. o
7840 1 14 0 12 128865. 135832. 3156. o
7841 1 14 0 -12 128332. 133879. 3235. o
7842 2 -8 4 -12 73012. 72614. 2871. o
7842 1 16 0 12 73012. 72614. 2871. o
7843 2 -8 4 12 73019. 74567. 3041. o
7843 1 16 0 -12 73019. 74567. 3041. o
7844 1 18 0 12 19224. 18306. 2809. o
7845 1 18 0 -12 19342. 23188. 2921. o
7846 2 -10 5 -12 49813. 49976. 3844. o
7846 1 20 0 12 49813. 49976. 3844. o
7847 2 -10 5 12 49817. 51806. 2981. o
7847 1 20 0 -12 49817. 51806. 2981. o
7848 1 22 0 12 33495. 30998. 3911. o
7849 1 22 0 -12 33726. 31487. 2388. o
7850 2 -12 6 -12 330911. 322921. 5676. o
7850 1 24 0 12 330911. 322921. 5676. o
7851 2 -12 6 12 328725. 351662. 3607. o
7851 1 24 0 -12 328725. 351662. 3607. o
7852 1 26 0 12 44834. 44850. 4210. o
7853 1 26 0 -12 44617. 50830. 2408. o
7854 2 -14 7 -12 1925. 3234. 4088. <
7854 1 28 0 12 1925. 3234. 4088. <
7855 2 -14 7 12 2002. -671. 2258. <
7855 1 28 0 -12 2002. -671. 2258. <
7856 1 30 0 12 423. 3539. 3905. <
7857 1 30 0 -12 437. 6163. 2377. o
7858 2 -16 8 -12 2932. 7506. 4148. <
7858 1 32 0 12 2932. 7506. 4148. <
7859 2 -16 8 12 3007. 6163. 2378. o
7859 1 32 0 -12 3007. 6163. 2378. o
7860 2 18 -7 -12 42221. 36673. 4041. o
7860 1 -30 1 12 42221. 36673. 4041. o
7861 2 18 -7 12 43050. 40030. 2454. o
7861 1 -30 1 -12 43050. 40030. 2454. o
7862 2 16 -6 -12 4126. -976. 3539. <
7862 1 -26 1 12 4126. -976. 3539. <
7863 2 16 -6 12 4015. 1831. 2197. <
7863 1 -26 1 -12 4015. 1831. 2197. <
7864 2 14 -5 -12 22028. 25262. 3900. o
7864 1 -22 1 12 22028. 25262. 3900. o
7865 2 14 -5 12 21906. 22028. 2257. o
7865 1 -22 1 -12 21906. 22028. 2257. o
7866 2 12 -4 -12 127869. 122529. 3469. o
7866 1 -18 1 12 127869. 122529. 3469. o
7867 2 12 -4 12 130651. 138883. 3391. o
7867 1 -18 1 -12 130651. 138883. 3391. o
7868 2 10 -3 -12 23125. 25324. 2924. o
7868 1 -14 1 12 23125. 25324. 2924. o
7869 2 10 -3 12 23353. 23188. 2990. o
7869 1 -14 1 -12 23353. 23188. 2990. o
7870 2 8 -2 -12 55120. 62180. 3322. o
7870 1 -10 1 12 55120. 62180. 3322. o
7871 2 8 -2 12 54943. 63584. 3438. o
7871 1 -10 1 -12 54943. 63584. 3438. o
7872 2 6 -1 -12 67666. 81402. 4081. o
7872 1 -6 1 12 67666. 81402. 4081. o
7873 2 6 -1 12 69357. 78778. 4103. o
7873 1 -6 1 -12 69357. 78778. 4103. o
7874 2 4 0 -12 42079. 42043. 4516. o
7874 1 -2 1 12 42079. 42043. 4516. o
7875 2 4 0 12 42335. 35514. 4470. o
7875 1 -2 1 -12 42335. 35514. 4470. o
7876 1 0 1 12 37156. 42776. 4624. o
7877 1 0 1 -12 36749. 35697. 4884. o
7878 1 1 1 12 104600. 115451. 3321. o
7879 1 1 1 -12 104196. 110935. 3360. o
7880 2 2 1 -12 28469. 33256. 4445. o
7880 1 2 1 12 28469. 33256. 4445. o
7881 2 2 1 12 28661. 34050. 4505. o
7881 1 2 1 -12 28661. 34050. 4505. o
7882 1 3 1 12 109134. 92080. 3486. o
7883 1 3 1 -12 109358. 96718. 3338. o
7884 1 4 1 12 1462. 244. 2746. <
7885 1 4 1 -12 1493. -1159. 2929. <
7886 1 5 1 12 3053. 1770. 2929. <
7887 1 5 1 -12 3005. 5004. 2928. <
7888 2 0 2 -12 138786. 145290. 4398. o
7888 1 6 1 12 138786. 145290. 4398. o
7889 2 0 2 12 142262. 133086. 4589. o
7889 1 6 1 -12 142262. 133086. 4589. o
7890 1 7 1 12 14309. 16781. 2681. o
7891 1 7 1 -12 14429. 12814. 2809. o
7892 1 8 1 12 18529. 16232. 2567. o
7893 1 8 1 -12 18656. 14645. 2570. o
7894 1 9 1 12 5549. 7384. 2439. o
7895 1 9 1 -12 5522. 7933. 2439. o
7896 2 -2 3 -12 52566. 58763. 3574. o
7896 1 10 1 12 52566. 58763. 3574. o
7897 2 -2 3 12 52367. 58763. 3881. o
7897 1 10 1 -12 52367. 58763. 3881. o
7898 1 11 1 12 21488. 25812. 2307. o
7899 1 11 1 -12 21948. 25995. 2369. o
7900 1 12 1 12 8644. 8116. 2197. o
7901 1 12 1 -12 8556. 12387. 2253. o
7902 1 13 1 12 13187. 16781. 2251. o
7903 1 13 1 -12 13326. 11411. 2260. o
7904 2 -4 4 -12 22875. 26300. 3166. o
7904 1 14 1 12 22875. 26300. 3166. o
7905 2 -4 4 12 22967. 30327. 3217. o
7905 1 14 1 -12 22967. 30327. 3217. o
7906 1 15 1 12 100525. 105688. 2256. o
7907 1 15 1 -12 100310. 104772. 2390. o
7908 1 16 1 12 18015. 20259. 2069. o
7909 1 16 1 -12 18034. 18611. 2134. o
7910 1 17 1 12 3233. 3783. 2074. <
7911 1 17 1 -12 3238. 3966. 2196. <
7912 2 -6 5 -12 85072. 96718. 3394. o
7912 1 18 1 12 85072. 96718. 3394. o
7913 2 -6 5 12 87362. 100684. 3441. o
7913 1 18 1 -12 87362. 100684. 3441. o
7914 1 19 1 12 11289. 12326. 2378. o
7915 1 19 1 -12 11419. 13547. 2438. o
7916 1 20 1 12 168. 2075. 2746. <
7917 1 20 1 -12 144. 2624. 2379. <
7918 1 21 1 12 3363. 2258. 2868. <
7919 1 21 1 -12 3393. 3844. 1830. o
7920 2 -8 6 -12 20777. 21174. 4027. o
7920 1 22 1 12 20777. 21174. 4027. o
7921 2 -8 6 12 20671. 22700. 2497. o
7921 1 22 1 -12 20671. 22700. 2497. o
7922 1 23 1 12 58. 4760. 2806. <
7923 1 23 1 -12 62. -2502. 1586. <
7924 1 24 1 12 2183. 3905. 2806. <
7925 1 24 1 -12 2193. 3722. 1586. o
7926 1 25 1 12 12277. 11106. 2869. o
7927 1 25 1 -12 12334. 12021. 1648. o
7928 2 -10 7 -12 2271. 3295. 4210. <
7928 1 26 1 12 2271. 3295. 4210. <
7929 2 -10 7 12 2176. 3234. 2379. <
7929 1 26 1 -12 2176. 3234. 2379. <
7930 1 27 1 12 33501. 27764. 3005. o
7931 1 27 1 -12 33508. 33561. 1708. o
7932 1 28 1 12 1324. -2197. 2685. <
7933 1 28 1 -12 1301. 3600. 1646. o
7934 1 29 1 12 4110. 13424. 2859. o
7935 1 29 1 -12 4164. 7506. 1583. o
7936 2 -12 8 -12 51604. 45216. 4594. o
7936 1 30 1 12 51604. 45216. 4594. o
7937 2 -12 8 12 52398. 49915. 2637. o
7937 1 30 1 -12 52398. 49915. 2637. o
7938 1 31 1 12 239. 5248. 2805. <
7939 1 31 1 -12 230. 5736. 1705. o
7940 1 32 1 12 3700. 5980. 2806. o
7941 1 32 1 -12 3648. 7872. 1704. o
7942 1 33 1 12 3975. 9092. 2864. o
7943 1 33 1 -12 3979. 9885. 1701. o
7944 2 22 -7 -12 3208. 6468. 3660. <
7944 1 -32 2 12 3208. 6468. 3660. <
7945 2 22 -7 12 3269. 7078. 2316. o
7945 1 -32 2 -12 3269. 7078. 2316. o
7946 2 20 -6 -12 29729. 32158. 4145. o
7946 1 -28 2 12 29729. 32158. 4145. o
7947 2 20 -6 12 29475. 30449. 2377. o
7947 1 -28 2 -12 29475. 30449. 2377. o
7948 2 18 -5 -12 92865. 96596. 4311. o
7948 1 -24 2 12 92865. 96596. 4311. o
7949 2 18 -5 12 91858. 86039. 2377. o
7949 1 -24 2 -12 91858. 86039. 2377. o
7950 2 16 -4 -12 9540. 16232. 4204. o
7950 1 -20 2 12 9540. 16232. 4204. o
7951 2 16 -4 12 9359. 8909. 2685. o
7951 1 -20 2 -12 9359. 8909. 2685. o
7952 2 14 -3 -12 19662. 14523. 2754. o
7952 1 -16 2 12 19662. 14523. 2754. o
7953 2 14 -3 12 19800. 18367. 2870. o
7953 1 -16 2 -12 19800. 18367. 2870. o
7954 2 12 -2 -12 1528200. 1633640. 31966. o
7954 1 -12 2 12 1528200. 1633640. 31966. o
7955 2 12 -2 12 1526840. 1634740. 32008. o
7955 1 -12 2 -12 1526840. 1634740. 32008. o
7956 2 10 -1 -12 76192. 81280. 3693. o
7956 1 -8 2 12 76192. 81280. 3693. o
7957 2 10 -1 12 76051. 81218. 3754. o
7957 1 -8 2 -12 76051. 81218. 3754. o
7958 2 8 0 -12 16826. 19100. 4086. o
7958 1 -4 2 12 16826. 19100. 4086. o
7959 2 8 0 12 16949. 21052. 4022. o
7959 1 -4 2 -12 16949. 21052. 4022. o
7960 2 6 1 -12 407002. 422751. 5872. o
7960 1 0 2 12 407002. 422751. 5872. o
7961 2 6 1 12 400373. 380036. 6148. o
7961 1 0 2 -12 400373. 380036. 6148. o
7962 1 1 2 12 55491. 56871. 3594. o
7963 1 1 2 -12 54390. 50647. 3372. o
7964 1 2 2 12 74363. 77862. 3458. o
7965 1 2 2 -12 73645. 78228. 3328. o
7966 1 3 2 12 17506. 15987. 2992. o
7967 1 3 2 -12 17582. 15194. 3237. o
7968 2 4 2 -12 7756. 8787. 4454. <
7968 1 4 2 12 7756. 8787. 4454. <
7969 2 4 2 12 7762. 16109. 4448. o
7969 1 4 2 -12 7762. 16109. 4448. o
7970 1 5 2 12 30422. 29839. 2870. o
7971 1 5 2 -12 31229. 22639. 3191. o
7972 1 6 2 12 19343. 22028. 2924. o
7973 1 6 2 -12 19444. 21601. 2864. o
7974 1 7 2 12 15938. 12143. 2812. o
7975 1 7 2 -12 15748. 13486. 2749. o
7976 2 2 3 -12 79418. 95741. 4054. o
7976 1 8 2 12 79418. 95741. 4054. o
7977 2 2 3 12 79248. 78900. 4273. o
7977 1 8 2 -12 79248. 78900. 4273. o
7978 1 9 2 12 3789. 6590. 2500. o
7979 1 9 2 -12 3799. 4638. 2624. <
7980 1 10 2 12 36324. 41494. 2541. o
7981 1 10 2 -12 36306. 37955. 2618. o
7982 1 11 2 12 48144. 53210. 2412. o
7983 1 11 2 -12 47993. 48878. 2558. o
7984 2 0 4 -12 1460180. 1631390. 31202. o
7984 1 12 2 12 1460180. 1631390. 31202. o
7985 2 0 4 12 1458090. 1584030. 30911. o
7985 1 12 2 -12 1458090. 1584030. 30911. o
7986 1 13 2 12 113647. 117404. 2393. o
7987 1 13 2 -12 113349. 122285. 2386. o
7988 1 14 2 12 87487. 88297. 2311. o
7989 1 14 2 -12 87559. 92446. 2454. o
7990 1 15 2 12 13621. 16048. 2192. o
7991 1 15 2 -12 13541. 14340. 2134. o
7992 2 -2 5 -12 19962. 16964. 3117. o
7992 1 16 2 12 19962. 16964. 3117. o
7993 2 -2 5 12 20113. 18672. 3236. o
7993 1 16 2 -12 20113. 18672. 3236. o
7994 1 17 2 12 18770. 19222. 2196. o
7995 1 17 2 -12 18309. 21784. 2127. o
7996 1 18 2 12 11874. 11167. 2381. o
7997 1 18 2 -12 11859. 13730. 2255. o
7998 1 19 2 12 9335. 8604. 2442. o
7999 1 19 2 -12 9292. 10252. 2135. o
8000 2 -4 6 -12 10031. 20076. 4872. o
8000 1 20 2 12 10031. 20076. 4872. o
8001 2 -4 6 12 9861. 14584. 2618. o
8001 1 20 2 -12 9861. 14584. 2618. o
8002 1 21 2 12 3015. 2929. 2929. <
8003 1 21 2 -12 2984. 3173. 1892. <
8004 1 22 2 12 7913. 9519. 3111. o
8005 1 22 2 -12 7735. 5980. 1588. o
8006 1 23 2 12 2052. 3661. 3173. <
8007 1 23 2 -12 1964. 3539. 1586. o
8008 2 -6 7 -12 88735. 100684. 5004. o
8008 1 24 2 12 88735. 100684. 5004. o
8009 2 -6 7 12 87808. 93362. 2696. o
8009 1 24 2 -12 87808. 93362. 2696. o
8010 1 25 2 12 21360. 21540. 3173. o
8011 1 25 2 -12 21060. 20259. 1711. o
8012 1 26 2 12 51659. 52234. 3171. o
8013 1 26 2 -12 51904. 53942. 1753. o
8014 1 27 2 12 1225. 3356. 3051. <
8015 1 27 2 -12 1214. 2929. 1708. <
8016 2 -8 8 -12 30985. 31060. 4820. o
8016 1 28 2 12 30985. 31060. 4820. o
8017 2 -8 8 12 30749. 34355. 2734. o
8017 1 28 2 -12 30749. 34355. 2734. o
8018 1 29 2 12 15355. 13730. 3053. o
8019 1 29 2 -12 15380. 17696. 1764. o
8020 1 30 2 12 1482. 2929. 3051. <
8021 1 30 2 -12 1472. 5919. 1706. o
8022 1 31 2 12 112. 3478. 2989. <
8023 1 31 2 -12 110. 5431. 1644. o
8024 2 -10 9 -12 3243. 8970. 4574. <
8024 1 32 2 12 3243. 8970. 4574. <
8025 2 -10 9 12 3300. 10740. 2556. o
8025 1 32 2 -12 3300. 10740. 2556. o
8026 2 24 -6 -12 51967. 51501. 4578. o
8026 1 -30 3 12 51967. 51501. 4578. o
8027 2 24 -6 12 52389. 46742. 2471. o
8027 1 -30 3 -12 52389. 46742. 2471. o
8028 2 22 -5 -12 5546. 2197. 3967. <
8028 1 -26 3 12 5546. 2197. 3967. <
8029 2 22 -5 12 5398. 5675. 2197. o
8029 1 -26 3 -12 5398. 5675. 2197. o
8030 2 20 -4 -12 4921. 9214. 3903. o
8030 1 -22 3 12 4921. 9214. 3903. o
8031 2 20 -4 12 5017. 6224. 2196. o
8031 1 -22 3 -12 5017. 6224. 2196. o
8032 2 18 -3 -12 23247. 27337. 2981. o
8032 1 -18 3 12 23247. 27337. 2981. o
8033 2 18 -3 12 23801. 28863. 3100. o
8033 1 -18 3 -12 23801. 28863. 3100. o
8034 2 16 -2 -12 20074. 19954. 3295. o
8034 1 -14 3 12 20074. 19954. 3295. o
8035 2 16 -2 12 20181. 20991. 3172. o
8035 1 -14 3 -12 20181. 20991. 3172. o
8036 2 14 -1 -12 35945. 47230. 3502. o
8036 1 -10 3 12 35945. 47230. 3502. o
8037 2 14 -1 12 35652. 47169. 3316. o
8037 1 -10 3 -12 35652. 47169. 3316. o
8038 2 12 0 -12 95891. 100745. 4118. o
8038 1 -6 3 12 95891. 100745. 4118. o
8039 2 12 0 12 98852. 105932. 4349. o
8039 1 -6 3 -12 98852. 105932. 4349. o
8040 2 10 1 -12 64110. 57298. 4539. o
8040 1 -2 3 12 64110. 57298. 4539. o
8041 2 10 1 12 64073. 56444. 4724. o
8041 1 -2 3 -12 64073. 56444. 4724. o
8042 1 0 3 12 7644. 9824. 4087. o
8043 1 0 3 -12 7630. 12509. 4879. o
8044 1 1 3 12 1047. 2563. 3112. <
8045 1 1 3 -12 1119. 488. 2990. <
8046 2 8 2 -12 69880. 79693. 4656. o
8046 1 2 3 12 69880. 79693. 4656. o
8047 2 8 2 12 69837. 73957. 4559. o
8047 1 2 3 -12 69837. 73957. 4559. o
8048 1 3 3 12 7696. 10496. 3049. o
8049 1 3 3 -12 7712. 9214. 2989. o
8050 1 4 3 12 65231. 65414. 3172. o
8051 1 4 3 -12 65781. 62363. 3373. o
8052 1 5 3 12 69212. 81646. 3028. o
8053 1 5 3 -12 70439. 70357. 3174. o
8054 2 6 3 -12 49768. 61936. 4474. o
8054 1 6 3 12 49768. 61936. 4474. o
8055 2 6 3 12 51260. 59007. 4367. o
8055 1 6 3 -12 51260. 59007. 4367. o
8056 1 7 3 12 10554. 14096. 2803. o
8057 1 7 3 -12 10556. 15743. 2922. o
8058 1 8 3 12 13480. 15194. 2866. o
8059 1 8 3 -12 13619. 13242. 2746. o
8060 1 9 3 12 30557. 34294. 2673. o
8061 1 9 3 -12 30486. 30510. 2685. o
8062 2 4 4 -12 39090. 46742. 3698. o
8062 1 10 3 12 39090. 46742. 3698. o
8063 2 4 4 12 38753. 41982. 3896. o
8063 1 10 3 -12 38753. 41982. 3896. o
8064 1 11 3 12 35232. 38504. 2611. o
8065 1 11 3 -12 34052. 41067. 2473. o
8066 1 12 3 12 7776. 8726. 2440. o
8067 1 12 3 -12 7852. 12387. 2558. o
8068 1 13 3 12 26368. 26910. 2439. o
8069 1 13 3 -12 26128. 27947. 2680. o
8070 2 2 5 -12 20488. 18794. 3603. o
8070 1 14 3 12 20488. 18794. 3603. o
8071 2 2 5 12 20613. 15682. 3728. o
8071 1 14 3 -12 20613. 15682. 3728. o
8072 1 15 3 12 102723. 106176. 2710. o
8073 1 15 3 -12 103190. 115695. 2543. o
8074 1 16 3 12 9240. 13119. 2314. o
8075 1 16 3 -12 9110. 11655. 2377. o
8076 1 17 3 12 10234. 8787. 2747. o
8077 1 17 3 -12 10211. 12814. 2315. o
8078 2 0 6 -12 60247. 66940. 5655. o
8078 1 18 3 12 60247. 66940. 5655. o
8079 2 0 6 12 61090. 69258. 2941. o
8079 1 18 3 -12 61090. 69258. 2941. o
8080 1 19 3 12 6162. 8238. 2561. o
8081 1 19 3 -12 6383. 6895. 1952. o
8082 1 20 3 12 9218. 10496. 3599. o
8083 1 20 3 -12 9129. 10740. 1889. o
8084 1 21 3 12 7370. 13058. 3473. o
8085 1 21 3 -12 7336. 9763. 1705. o
8086 2 -2 7 -12 5187. 3295. 5126. <
8086 1 22 3 12 5187. 3295. 5126. <
8087 2 -2 7 12 5252. 6163. 2501. o
8087 1 22 3 -12 5252. 6163. 2501. o
8088 1 23 3 12 5151. 4393. 3295. <
8089 1 23 3 -12 5065. 4393. 1648. o
8090 1 24 3 12 5791. 7261. 3294. o
8091 1 24 3 -12 5751. 5919. 1647. o
8092 1 25 3 12 20082. 18794. 3236. o
8093 1 25 3 -12 20015. 21662. 1826. o
8094 2 -4 8 -12 7227. 6224. 4394. <
8094 1 26 3 12 7227. 6224. 4394. <
8095 2 -4 8 12 7063. 7933. 2562. o
8095 1 26 3 -12 7063. 7933. 2562. o
8096 1 27 3 12 5568. 8421. 2988. o
8097 1 27 3 -12 5518. 8665. 1644. o
8098 1 28 3 12 6122. 9336. 2988. o
8099 1 28 3 -12 6157. 7994. 1706. o
8100 1 29 3 12 217. 8482. 3169. o
8101 1 29 3 -12 253. 2929. 1647. <
8102 2 -6 9 -12 44467. 21967. 5160. o
8102 1 30 3 12 44467. 21967. 5160. o
8103 2 -6 9 12 44860. 48328. 2853. o
8103 1 30 3 -12 44860. 48328. 2853. o
8104 1 31 3 12 9681. 10557. 3294. o
8105 1 31 3 -12 9858. 8360. 1711. o
8106 2 26 -5 -12 1623. 13424. 3837. o
8106 1 -28 4 12 1623. 13424. 3837. o
8107 2 26 -5 12 1636. 6895. 2377. o
8107 1 -28 4 -12 1636. 6895. 2377. o
8108 2 24 -4 -12 92826. 84086. 5286. o
8108 1 -24 4 12 92826. 84086. 5286. o
8109 2 24 -4 12 92659. 100379. 2546. o
8109 1 -24 4 -12 92659. 100379. 2546. o
8110 2 22 -3 -12 4890. 5187. 4637. <
8110 1 -20 4 12 4890. 5187. 4637. <
8111 2 22 -3 12 4762. 6773. 2439. o
8111 1 -20 4 -12 4762. 6773. 2439. o
8112 2 20 -2 -12 20122. 18611. 3236. o
8112 1 -16 4 12 20122. 18611. 3236. o
8113 2 20 -2 12 20040. 25690. 3284. o
8113 1 -16 4 -12 20040. 25690. 3284. o
8114 2 18 -1 -12 226822. 253968. 3560. o
8114 1 -12 4 12 226822. 253968. 3560. o
8115 2 18 -1 12 223984. 243777. 3703. o
8115 1 -12 4 -12 223984. 243777. 3703. o
8116 2 16 0 -12 34845. 42959. 3760. o
8116 1 -8 4 12 34845. 42959. 3760. o
8117 2 16 0 12 34748. 34965. 3966. o
8117 1 -8 4 -12 34748. 34965. 3966. o
8118 2 14 1 -12 34101. 42043. 3823. o
8118 1 -4 4 12 34101. 42043. 3823. o
8119 2 14 1 12 34439. 31731. 4033. o
8119 1 -4 4 -12 34439. 31731. 4033. o
8120 2 12 2 -12 1204560. 1288080. 3843. o
8120 1 0 4 12 1204560. 1288080. 3843. o
8121 2 12 2 12 1206590. 1325860. 26291. o
8121 1 0 4 -12 1206590. 1325860. 26291. o
8122 1 1 4 12 313483. 302296. 3960. o
8123 1 1 4 -12 314810. 330915. 3664. o
8124 1 2 4 12 34597. 26361. 3193. o
8125 1 2 4 -12 33935. 32768. 3054. o
8126 1 3 4 12 9380. 9885. 2806. o
8127 1 3 4 -12 9308. 9397. 2868. o
8128 2 10 3 -12 37491. 39724. 4266. o
8128 1 4 4 12 37491. 39724. 4266. o
8129 2 10 3 12 37920. 34294. 4401. o
8129 1 4 4 -12 37920. 34294. 4401. o
8130 1 5 4 12 22533. 25262. 3045. o
8131 1 5 4 -12 22470. 19649. 2934. o
8132 1 6 4 12 12512. 15987. 2863. o
8133 1 6 4 -12 12640. 15926. 3108. o
8134 1 7 4 12 3252. 5553. 2867. <
8135 1 7 4 -12 3264. 5431. 2989. <
8136 2 8 4 -12 24448. 27154. 4267. o
8136 1 8 4 12 24448. 27154. 4267. o
8137 2 8 4 12 24369. 26971. 4389. o
8137 1 8 4 -12 24369. 26971. 4389. o
8138 1 9 4 12 5537. 7200. 2623. o
8139 1 9 4 -12 5376. 3234. 2808. <
8140 1 10 4 12 21006. 21540. 2562. o
8141 1 10 4 -12 20837. 21906. 2560. o
8142 1 11 4 12 18866. 17574. 2565. o
8143 1 11 4 -12 18328. 19832. 2682. o
8144 2 6 5 -12 210047. 222969. 4345. o
8144 1 12 4 12 210047. 222969. 4345. o
8145 2 6 5 12 207710. 215159. 5043. o
8145 1 12 4 -12 207710. 215159. 5043. o
8146 1 13 4 12 71407. 74628. 2784. o
8147 1 13 4 -12 70011. 77984. 2562. o
8148 1 14 4 12 86867. 90799. 2650. o
8149 1 14 4 -12 87035. 98060. 2643. o
8150 1 15 4 12 8685. 8482. 2807. o
8151 1 15 4 -12 8673. 7261. 2442. o
8152 2 4 6 -12 23531. 27642. 5609. o
8152 1 16 4 12 23531. 27642. 5609. o
8153 2 4 6 12 23442. 21967. 3542. o
8153 1 16 4 -12 23442. 21967. 3542. o
8154 1 17 4 12 42197. 41860. 2991. o
8155 1 17 4 -12 42981. 43813. 2131. o
8156 1 18 4 12 5394. 5492. 2807. <
8157 1 18 4 -12 5310. 7689. 2073. o
8158 1 19 4 12 10172. 13119. 3659. o
8159 1 19 4 -12 10215. 13791. 2069. o
8160 2 2 7 -12 5099. 10007. 5246. <
8160 1 20 4 12 5099. 10007. 5246. <
8161 2 2 7 12 4979. 7994. 2500. o
8161 1 20 4 -12 4979. 7994. 2500. o
8162 1 21 4 12 586. 2075. 3417. <
8163 1 21 4 -12 546. 1098. 1708. <
8164 1 22 4 12 6462. 3844. 3479. <
8165 1 22 4 -12 6464. 5858. 1831. o
8166 1 23 4 12 15322. 18733. 3412. o
8167 1 23 4 -12 15278. 14584. 1832. o
8168 2 0 8 -12 79209. 85673. 5527. o
8168 1 24 4 12 79209. 85673. 5527. o
8169 2 0 8 12 79033. 77801. 3059. o
8169 1 24 4 -12 79033. 77801. 3059. o
8170 1 25 4 12 73856. 71699. 3855. o
8171 1 25 4 -12 74014. 75177. 1941. o
8172 1 26 4 12 10461. 13730. 3536. o
8173 1 26 4 -12 10354. 12875. 1704. o
8174 1 27 4 12 5878. 7872. 3233. o
8175 1 27 4 -12 5839. 8726. 1766. o
8176 2 -2 9 -12 1819. -2746. 5553. <
8176 1 28 4 12 1819. -2746. 5553. <
8177 2 -2 9 12 1853. 2990. 2624. <
8177 1 28 4 -12 1853. 2990. 2624. <
8178 1 29 4 12 13313. 6102. 3422. <
8179 1 29 4 -12 13300. 15926. 1825. o
8180 1 30 4 12 6582. 9763. 3476. o
8181 1 30 4 -12 6642. 6956. 1769. o
8182 2 28 -4 -12 3431. 5736. 4149. <
8182 1 -26 5 12 3431. 5736. 4149. <
8183 2 28 -4 12 3464. 9397. 2375. o
8183 1 -26 5 -12 3464. 9397. 2375. o
8184 2 26 -3 -12 6010. 18428. 4750. o
8184 1 -22 5 12 6010. 18428. 4750. o
8185 2 26 -3 12 6090. 8482. 2561. o
8185 1 -22 5 -12 6090. 8482. 2561. o
8186 2 24 -2 -12 37774. 33378. 4768. o
8186 1 -18 5 12 37774. 33378. 4768. o
8187 2 24 -2 12 38274. 36612. 3178. o
8187 1 -18 5 -12 38274. 36612. 3178. o
8188 2 22 -1 -12 12262. 13424. 3233. o
8188 1 -14 5 12 12262. 13424. 3233. o
8189 2 22 -1 12 12354. 9885. 3419. o
8189 1 -14 5 -12 12354. 9885. 3419. o
8190 2 20 0 -12 14044. 15255. 3416. o
8190 1 -10 5 12 14044. 15255. 3416. o
8191 2 20 0 12 14098. 18428. 3534. o
8191 1 -10 5 -12 14098. 18428. 3534. o
8192 2 18 1 -12 25709. 36246. 3697. o
8192 1 -6 5 12 25709. 36246. 3697. o
8193 2 18 1 12 25158. 33622. 3765. o
8193 1 -6 5 -12 25158. 33622. 3765. o
8194 2 16 2 -12 21484. 25262. 4449. o
8194 1 -2 5 12 21484. 25262. 4449. o
8195 2 16 2 12 21534. 21540. 3966. o
8195 1 -2 5 -12 21534. 21540. 3966. o
8196 1 0 5 12 70018. 67855. 4402. o
8197 1 0 5 -12 69626. 70296. 4818. o
8198 1 1 5 12 27118. 25140. 2873. o
8199 1 1 5 -12 26896. 27642. 3049. o
8200 2 14 3 -12 21595. 20442. 4334. o
8200 1 2 5 12 21595. 20442. 4334. o
8201 2 14 3 12 21650. 19100. 4519. o
8201 1 2 5 -12 21650. 19100. 4519. o
8202 1 3 5 12 63663. 57848. 2960. o
8203 1 3 5 -12 63615. 57604. 3203. o
8204 1 4 5 12 33264. 33683. 2928. o
8205 1 4 5 -12 33416. 31853. 3116. o
8206 1 5 5 12 32630. 35331. 3043. o
8207 1 5 5 -12 31872. 32829. 3232. o
8208 2 12 4 -12 51551. 46315. 4226. o
8208 1 6 5 12 51551. 46315. 4226. o
8209 2 12 4 12 51991. 52661. 5429. o
8209 1 6 5 -12 51991. 52661. 5429. o
8210 1 7 5 12 62130. 70601. 2814. o
8211 1 7 5 -12 63512. 64621. 3289. o
8212 1 8 5 12 16497. 20686. 2738. o
8213 1 8 5 -12 17119. 17513. 3111. o
8214 1 9 5 12 28332. 35331. 2846. o
8215 1 9 5 -12 28212. 27581. 3114. o
8216 2 10 5 -12 4351. 2319. 3967. <
8216 1 10 5 12 4351. 2319. 3967. <
8217 2 10 5 12 4397. 8421. 4697. <
8217 1 10 5 -12 4397. 8421. 4697. <
8218 1 11 5 12 635. 7200. 2621. o
8219 1 11 5 -12 587. 1587. 2990. <
8220 1 12 5 12 4665. 7261. 2561. o
8221 1 12 5 -12 4706. 8482. 2865. o
8222 1 13 5 12 16700. 15804. 3113. o
8223 1 13 5 -12 16543. 15926. 2686. o
8224 2 8 6 -12 8420. 3844. 6713. <
8224 1 14 5 12 8420. 3844. 6713. <
8225 2 8 6 12 8490. 7445. 3235. o
8225 1 14 5 -12 8490. 7445. 3235. o
8226 1 15 5 12 2846. 1526. 3234. <
8227 1 15 5 -12 2691. 5431. 2378. o
8228 1 16 5 12 18906. 19038. 2929. o
8229 1 16 5 -12 18996. 20747. 2315. o
8230 1 17 5 12 10644. 14523. 2802. o
8231 1 17 5 -12 10872. 16232. 2187. o
8232 2 6 7 -12 19028. 15011. 5617. o
8232 1 18 5 12 19028. 15011. 5617. o
8233 2 6 7 12 19342. 20198. 2988. o
8233 1 18 5 -12 19342. 20198. 2988. o
8234 1 19 5 12 30684. 29168. 3908. o
8235 1 19 5 -12 30543. 34050. 1875. o
8236 1 20 5 12 23940. 20320. 3484. o
8237 1 20 5 -12 24330. 26178. 1885. o
8238 1 21 5 12 18394. 21357. 3596. o
8239 1 21 5 -12 18570. 18977. 1891. o
8240 2 4 8 -12 7868. 2807. 5432. <
8240 1 22 5 12 7868. 2807. 5432. <
8241 2 4 8 12 7893. 9824. 2866. o
8241 1 22 5 -12 7893. 9824. 2866. o
8242 1 23 5 12 573. 5553. 3599. <
8243 1 23 5 -12 613. 3173. 1830. <
8244 1 24 5 12 2764. 9824. 3474. o
8245 1 24 5 -12 2725. 6895. 1827. o
8246 1 25 5 12 2945. 2319. 3478. <
8247 1 25 5 -12 2960. 6590. 1889. o
8248 2 2 9 -12 4126. 5919. 5674. <
8248 1 26 5 12 4126. 5919. 5674. <
8249 2 2 9 12 4176. 4821. 3661. <
8249 1 26 5 -12 4176. 4821. 3661. <
8250 1 27 5 12 5110. 9885. 3414. o
8251 1 27 5 -12 5210. 7139. 2012. o
8252 1 28 5 12 18770. 19282. 3538. o
8253 1 28 5 -12 18840. 17574. 1956. o
8254 2 30 -3 -12 45471. 19893. 5042. o
8254 1 -24 6 12 45471. 19893. 5042. o
8255 2 30 -3 12 45312. 40579. 2705. o
8255 1 -24 6 -12 45312. 40579. 2705. o
8256 2 28 -2 -12 8773. 5065. 4700. <
8256 1 -20 6 12 8773. 5065. 4700. <
8257 2 28 -2 12 8840. 9824. 2501. o
8257 1 -20 6 -12 8840. 9824. 2501. o
8258 2 26 -1 -12 11738. 15072. 5062. o
8258 1 -16 6 12 11738. 15072. 5062. o
8259 2 26 -1 12 11766. 15438. 3352. o
8259 1 -16 6 -12 11766. 15438. 3352. o
8260 2 24 0 -12 159281. 172749. 4001. o
8260 1 -12 6 12 159281. 172749. 4001. o
8261 2 24 0 12 160017. 168783. 3992. o
8261 1 -12 6 -12 160017. 168783. 3992. o
8262 2 22 1 -12 6510. 4332. 4150. <
8262 1 -8 6 12 6510. 4332. 4150. <
8263 2 22 1 12 6528. 10496. 3720. o
8263 1 -8 6 -12 6528. 10496. 3720. o
8264 2 20 2 -12 22355. 23371. 4514. o
8264 1 -4 6 12 22355. 23371. 4514. o
8265 2 20 2 12 22226. 25507. 4205. o
8265 1 -4 6 -12 22226. 25507. 4205. o
8266 2 18 3 -12 195919. 201978. 5618. o
8266 1 0 6 12 195919. 201978. 5618. o
8267 2 18 3 12 195132. 208324. 5109. o
8267 1 0 6 -12 195132. 208324. 5109. o
8268 1 1 6 12 44046. 44179. 3173. o
8269 1 1 6 -12 42921. 43752. 3170. o
8270 1 2 6 12 38538. 39358. 3231. o
8271 1 2 6 -12 38161. 39358. 3047. o
8272 1 3 6 12 1284. 4332. 2989. <
8273 1 3 6 -12 1319. 3234. 3051. <
8274 2 16 4 -12 25266. 23920. 4456. o
8274 1 4 6 12 25266. 23920. 4456. o
8275 2 16 4 12 25120. 21662. 4642. o
8275 1 4 6 -12 25120. 21662. 4642. o
8276 1 5 6 12 254. 366. 2868. <
8277 1 5 6 -12 271. 1526. 3112. <
8278 1 6 6 12 747. 183. 2746. <
8279 1 6 6 -12 759. -732. 3234. <
8280 1 7 6 12 19572. 17879. 2932. o
8281 1 7 6 -12 19718. 18001. 3298. o
8282 2 14 5 -12 3921. 8543. 4208. o
8282 1 8 6 12 3921. 8543. 4208. o
8283 2 14 5 12 3901. 6834. 5125. <
8283 1 8 6 -12 3901. 6834. 5125. <
8284 1 9 6 12 899. 3173. 2684. <
8285 1 9 6 -12 974. 4699. 3050. <
8286 1 10 6 12 12959. 14645. 3354. o
8287 1 10 6 -12 12777. 16170. 3169. o
8288 1 11 6 12 103230. 103796. 3474. o
8289 1 11 6 -12 103372. 106725. 3143. o
8290 2 12 6 -12 113554. 121187. 6553. o
8290 1 12 6 12 113554. 121187. 6553. o
8291 2 12 6 12 113776. 104406. 4635. o
8291 1 12 6 -12 113776. 104406. 4635. o
8292 1 13 6 12 261563. 279902. 3479. o
8293 1 13 6 -12 261675. 270077. 3366. o
8294 1 14 6 12 14463. 12631. 3114. o
8295 1 14 6 -12 14011. 14462. 2684. o
8296 1 15 6 12 6820. 8116. 2867. o
8297 1 15 6 -12 6901. 8299. 2562. o
8298 2 10 7 12 12029. 10679. 3601. o
8298 1 16 6 -12 12029. 10679. 3601. o
8299 1 17 6 12 16098. 12265. 5616. o
8300 1 17 6 -12 15823. 13669. 2383. o
8301 1 18 6 12 17132. 19405. 3841. o
8302 1 18 6 -12 17519. 17025. 2259. o
8303 1 19 6 12 3706. 5553. 4210. <
8304 1 19 6 -12 3655. 5309. 2257. o
8305 2 8 8 -12 4400. 7078. 5857. <
8305 1 20 6 12 4400. 7078. 5857. <
8306 2 8 8 12 4428. 5797. 3172. <
8306 1 20 6 -12 4428. 5797. 3172. <
8307 1 21 6 12 3674. 5980. 3416. <
8308 1 21 6 -12 3702. 7322. 1889. o
8309 1 22 6 12 14357. 8726. 3544. o
8310 1 22 6 -12 14252. 15072. 1890. o
8311 1 23 6 12 3553. 9824. 3841. o
8312 1 23 6 -12 3467. 7567. 1949. o
8313 2 6 9 -12 36134. 11289. 6610. <
8313 1 24 6 12 36134. 11289. 6610. <
8314 2 6 9 12 36050. 36551. 3477. o
8314 1 24 6 -12 36050. 36551. 3477. o
8315 1 25 6 12 7724. 6773. 3784. <
8316 1 25 6 -12 7293. 9824. 2072. o
8317 2 32 -2 -12 1792. 4638. 4759. <
8317 1 -22 7 12 1792. 4638. 4759. <
8318 2 32 -2 12 1768. 7811. 2681. o
8318 1 -22 7 -12 1768. 7811. 2681. o
8319 2 30 -1 -12 15583. 3417. 5618. <
8319 1 -18 7 12 15583. 3417. 5618. <
8320 2 30 -1 12 15493. 12448. 2750. o
8320 1 -18 7 -12 15493. 12448. 2750. o
8321 2 28 0 -12 1859. 3661. 5736. <
8321 1 -14 7 12 1859. 3661. 5736. <
8322 2 28 0 12 1857. 3539. 3112. <
8322 1 -14 7 -12 1857. 3539. 3112. <
8323 2 26 1 -12 3208. 5614. 3721. <
8323 1 -10 7 12 3208. 5614. 3721. <
8324 2 26 1 12 3164. 2929. 5065. <
8324 1 -10 7 -12 3164. 2929. 5065. <
8325 2 24 2 -12 18907. 20808. 4208. o
8325 1 -6 7 12 18907. 20808. 4208. o
8326 2 24 2 12 19034. 18123. 3967. o
8326 1 -6 7 -12 19034. 18123. 3967. o
8327 2 22 3 -12 5960. 4516. 7262. <
8327 1 -2 7 12 5960. 4516. 7262. <
8328 2 22 3 12 5979. 10374. 4269. o
8328 1 -2 7 -12 5979. 10374. 4269. o
8329 1 0 7 12 21971. 21845. 4394. o
8330 1 0 7 -12 22343. 25934. 4205. o
8331 1 1 7 12 1912. 1770. 3783. <
8332 1 1 7 -12 1856. 4882. 2928. <
8333 2 20 4 -12 5903. 7994. 4209. <
8333 1 2 7 12 5903. 7994. 4209. <
8334 2 20 4 12 5962. 5126. 4272. <
8334 1 2 7 -12 5962. 5126. 4272. <
8335 1 3 7 12 10868. 10190. 3052. o
8336 1 3 7 -12 10674. 10740. 3295. o
8337 1 4 7 12 10114. 10129. 3234. o
8338 1 4 7 -12 10335. 11899. 3172. o
8339 1 5 7 12 42326. 47169. 3216. o
8340 1 5 7 -12 42630. 39419. 3610. o
8341 2 18 5 -12 4330. 13424. 5915. o
8341 1 6 7 12 4330. 13424. 5915. o
8342 2 18 5 12 4191. 4210. 5370. <
8342 1 6 7 -12 4191. 4210. 5370. <
8343 1 7 7 12 30658. 28375. 3240. o
8344 1 7 7 -12 29901. 34233. 3957. o
8345 1 8 7 12 21444. 18672. 3300. o
8346 1 8 7 -12 22072. 23615. 3964. o
8347 1 9 7 12 17488. 20747. 3290. o
8348 1 9 7 -12 17620. 19282. 3415. o
8349 2 16 6 -12 5322. 1098. 5370. <
8349 1 10 7 12 5322. 1098. 5370. <
8350 2 16 6 12 5253. 4088. 4821. <
8350 1 10 7 -12 5253. 4088. 4821. <
8351 1 11 7 12 5718. 1770. 3113. <
8352 1 11 7 -12 5761. 6224. 3722. <
8353 1 12 7 12 47046. 46620. 3541. o
8354 1 12 7 -12 46601. 42531. 3431. o
8355 1 13 7 12 8543. 12204. 3414. o
8356 1 13 7 -12 8510. 11350. 3110. o
8357 2 14 7 12 1839. 2990. 6346. <
8357 1 14 7 -12 1839. 2990. 6346. <
8358 1 15 7 12 16404. 11960. 5495. o
8359 1 15 7 -12 16314. 18001. 3537. o
8360 1 16 7 12 49474. 43081. 4472. o
8361 1 16 7 -12 49730. 47962. 3241. o
8362 1 17 7 12 10164. 10007. 3966. o
8363 1 17 7 -12 9948. 11777. 2927. o
8364 2 12 8 -12 17496. 7322. 6961. <
8364 1 18 7 12 17496. 7322. 6961. <
8365 2 12 8 12 17532. 14462. 4274. o
8365 1 18 7 -12 17532. 14462. 4274. o
8366 1 19 7 12 3354. 6163. 4515. <
8367 1 19 7 -12 3440. 7628. 2438. o
8368 1 20 7 12 1658. 5980. 4270. <
8369 1 20 7 -12 1643. 4149. 2318. <
8370 1 21 7 12 14367. 12143. 4212. o
8371 1 21 7 -12 14171. 14218. 2319. o
8372 2 10 9 -12 1426. 9336. 7443. <
8372 1 22 7 12 1426. 9336. 7443. <
8373 2 10 9 12 1413. 5553. 3660. <
8373 1 22 7 -12 1413. 5553. 3660. <
8374 2 32 0 -12 10567. 11960. 6406. <
8374 1 -16 8 12 10567. 11960. 6406. <
8375 2 32 0 12 10527. 18794. 2917. o
8375 1 -16 8 -12 10527. 18794. 2917. o
8376 2 30 1 -12 58751. 53576. 6785. o
8376 1 -12 8 12 58751. 53576. 6785. o
8377 2 30 1 12 58827. 48450. 4123. o
8377 1 -12 8 -12 58827. 48450. 4123. o
8378 2 28 2 -12 14623. 15560. 4637. o
8378 1 -8 8 12 14623. 15560. 4637. o
8379 2 28 2 12 14604. 9031. 4153. o
8379 1 -8 8 -12 14604. 9031. 4153. o
8380 2 26 3 -12 13683. 7811. 4641. <
8380 1 -4 8 12 13683. 7811. 4641. <
8381 2 26 3 12 13830. 12753. 4333. o
8381 1 -4 8 -12 13830. 12753. 4333. o
8382 2 24 4 -12 29140. 22090. 4952. o
8382 1 0 8 12 29140. 22090. 4952. o
8383 2 24 4 12 29017. 18794. 6173. o
8383 1 0 8 -12 29017. 18794. 6173. o
8384 1 1 8 12 150161. 157433. 5005. o
8385 1 1 8 -12 150390. 103979. 5349. o
8386 1 2 8 12 31988. 29717. 4093. o
8387 1 2 8 -12 31816. 28314. 4034. o
8388 1 3 8 12 789. 3844. 3722. <
8389 1 3 8 -12 845. -1464. 3783. <
8390 2 22 5 -12 13864. 4943. 5922. <
8390 1 4 8 12 13864. 4943. 5922. <
8391 2 22 5 12 13971. 7200. 6898. <
8391 1 4 8 -12 13971. 7200. 6898. <
8392 1 5 8 12 150. 4088. 3660. <
8393 1 5 8 -12 166. 3112. 3783. <
8394 1 6 8 12 2980. 2563. 3844. <
8395 1 6 8 -12 3119. 6346. 3538. <
8396 1 7 8 12 12859. 8604. 3786. o
8397 1 7 8 -12 12738. 13424. 3722. o
8398 2 20 6 -12 9019. 17086. 6463. o
8398 1 8 8 12 9019. 17086. 6463. o
8399 2 20 6 12 8944. 11045. 6467. <
8399 1 8 8 -12 8944. 11045. 6467. <
8400 1 9 8 12 11816. 12692. 4149. o
8401 1 9 8 -12 11942. 12387. 3417. o
8402 1 10 8 12 4309. 3295. 4211. <
8403 1 10 8 -12 4140. 5431. 3905. <
8404 1 11 8 12 6940. 7322. 6407. <
8405 1 11 8 -12 6554. 8421. 3721. o
8406 2 18 7 -12 51351. 31548. 6924. o
8406 1 12 8 12 51351. 31548. 6924. o
8407 2 18 7 12 51590. 25262. 6505. o
8407 1 12 8 -12 51590. 25262. 6505. o
8408 1 13 8 12 5037. 9153. 4208. o
8409 1 13 8 -12 4756. 5065. 2624. <
8410 1 14 8 12 10271. 7139. 4212. <
8411 1 14 8 -12 10058. 11411. 2500. o
8412 1 15 8 12 750. 6529. 4392. <
8413 1 15 8 -12 704. 5431. 2500. o
8414 2 16 8 -12 12634. 7261. 6775. <
8414 1 16 8 12 12634. 7261. 6775. <
8415 2 16 8 12 12614. 11716. 5919. <
8415 1 16 8 -12 12614. 11716. 5919. <
8416 1 17 8 12 33. 4332. 5552. <
8417 1 17 8 -12 38. 5004. 2561. <
8418 2 32 2 -12 1927. 4271. 8360. <
8418 1 -10 9 12 1927. 4271. 8360. <
8419 2 32 2 12 1919. 6407. 3965. <
8419 1 -10 9 -12 1919. 6407. 3965. <
8420 2 30 3 -12 10449. 9397. 4455. o
8420 1 -6 9 12 10449. 9397. 4455. o
8421 2 28 4 -12 4409. 6407. 5125. <
8421 1 -2 9 12 4409. 6407. 5125. <
8422 2 28 4 12 4349. 6407. 6712. <
8422 1 -2 9 -12 4349. 6407. 6712. <
8423 1 0 9 12 49621. 41006. 6179. o
8424 1 0 9 -12 49340. 20198. 6990. o
8425 1 1 9 12 7207. 13058. 5672. o
8426 1 1 9 -12 7163. 5980. 4882. <
8427 2 26 5 12 4841. 9519. 6711. <
8427 1 2 9 -12 4841. 9519. 6711. <
8428 1 3 9 12 13777. 9702. 3786. o
8429 1 3 9 -12 13678. 9824. 5189. <
8430 1 4 9 12 29985. 20625. 4103. o
8431 1 4 9 -12 30189. 19405. 5078. o
8432 1 5 9 12 4573. 5309. 3905. <
8433 1 5 9 -12 4290. 7750. 4636. <
8434 2 24 6 -12 8600. 10190. 6162. <
8434 1 6 9 12 8600. 10190. 6162. <
8435 2 24 6 12 8679. 7261. 7201. <
8435 1 6 9 -12 8679. 7261. 7201. <
8436 1 7 9 12 15268. 10740. 4336. o
8437 1 7 9 -12 15284. 15926. 7078. o
8438 1 8 9 12 12749. 8909. 4091. o
8439 1 8 9 -12 12788. 8726. 4762. <
8440 1 9 9 12 6196. 3295. 5309. <
8441 1 9 9 -12 6084. 5431. 5004. <
8442 2 22 7 -12 1528. 5004. 6651. <
8442 1 10 9 12 1528. 5004. 6651. <
8443 1 2 0 13 34014. 33073. 4151. o
8444 1 2 0 -13 33902. 26422. 4346. o
8445 2 -2 1 -13 92562. 75788. 4176. o
8445 1 4 0 13 92562. 75788. 4176. o
8446 2 -2 1 13 93822. 63645. 4408. o
8446 1 4 0 -13 93822. 63645. 4408. o
8447 1 6 0 13 36161. 38382. 3900. o
8448 1 6 0 -13 36330. 34172. 3910. o
8449 2 -4 2 -13 35823. 44423. 3697. o
8449 1 8 0 13 35823. 44423. 3697. o
8450 2 -4 2 13 35210. 38931. 3651. o
8450 1 8 0 -13 35210. 38931. 3651. o
8451 1 10 0 13 55261. 54369. 3238. o
8452 1 10 0 -13 55063. 58580. 3401. o
8453 2 -6 3 -13 60626. 60533. 3113. o
8453 1 12 0 13 60626. 60533. 3113. o
8454 2 -6 3 13 60082. 60410. 3232. o
8454 1 12 0 -13 60082. 60410. 3232. o
8455 1 14 0 13 27087. 25324. 2811. o
8456 1 14 0 -13 26757. 26422. 2991. o
8457 2 -8 4 -13 15687. 13302. 2871. o
8457 1 16 0 13 15687. 13302. 2871. o
8458 2 -8 4 13 15352. 20015. 2982. o
8458 1 16 0 -13 15352. 20015. 2982. o
8459 1 18 0 13 30980. 28192. 2997. o
8460 1 18 0 -13 31228. 31243. 3173. o
8461 2 -10 5 -13 6912. 12936. 2862. o
8461 1 20 0 13 6912. 12936. 2862. o
8462 2 -10 5 13 7160. 6956. 4149. <
8462 1 20 0 -13 7160. 6956. 4149. <
8463 1 22 0 13 18543. 17208. 3846. o
8464 1 22 0 -13 18504. 21601. 2373. o
8465 2 -12 6 -13 364467. 337383. 5705. o
8465 1 24 0 13 364467. 337383. 5705. o
8466 2 -12 6 13 365482. 366612. 3261. o
8466 1 24 0 -13 365482. 366612. 3261. o
8467 1 26 0 13 8444. 1648. 3724. <
8468 1 26 0 -13 8451. 10312. 2317. o
8469 2 -14 7 -13 43735. 42226. 4397. o
8469 1 28 0 13 43735. 42226. 4397. o
8470 2 -14 7 13 44263. 46864. 2550. o
8470 1 28 0 -13 44263. 46864. 2550. o
8471 1 30 0 13 828. 6285. 3782. <
8472 1 30 0 -13 873. 7994. 2436. o
8473 2 -16 8 -13 9488. 13424. 4452. o
8473 1 32 0 13 9488. 13424. 4452. o
8474 2 -16 8 13 9313. 18123. 2426. o
8474 1 32 0 -13 9313. 18123. 2426. o
8475 2 18 -7 -13 11251. 8177. 4151. <
8475 1 -30 1 13 11251. 8177. 4151. <
8476 2 18 -7 13 11109. 12204. 2195. o
8476 1 -30 1 -13 11109. 12204. 2195. o
8477 2 16 -6 -13 15696. 17330. 4087. o
8477 1 -26 1 13 15696. 17330. 4087. o
8478 2 16 -6 13 15773. 15133. 2198. o
8478 1 -26 1 -13 15773. 15133. 2198. o
8479 2 14 -5 -13 22098. 19710. 3848. o
8479 1 -22 1 13 22098. 19710. 3848. o
8480 2 14 -5 13 21736. 23066. 2804. o
8480 1 -22 1 -13 21736. 23066. 2804. o
8481 2 12 -4 -13 25743. 23920. 2872. o
8481 1 -18 1 13 25743. 23920. 2872. o
8482 2 12 -4 13 25210. 27764. 2984. o
8482 1 -18 1 -13 25210. 27764. 2984. o
8483 2 10 -3 -13 85877. 93606. 3113. o
8483 1 -14 1 13 85877. 93606. 3113. o
8484 2 10 -3 13 87215. 99098. 3202. o
8484 1 -14 1 -13 87215. 99098. 3202. o
8485 2 8 -2 -13 115081. 127411. 3486. o
8485 1 -10 1 13 115081. 127411. 3486. o
8486 2 8 -2 13 114449. 123750. 3516. o
8486 1 -10 1 -13 114449. 123750. 3516. o
8487 2 6 -1 -13 9102. 9153. 3417. o
8487 1 -6 1 13 9102. 9153. 3417. o
8488 2 6 -1 13 9176. 10679. 3904. o
8488 1 -6 1 -13 9176. 10679. 3904. o
8489 2 4 0 -13 175687. 168722. 4706. o
8489 1 -2 1 13 175687. 168722. 4706. o
8490 2 4 0 13 175315. 160667. 4775. o
8490 1 -2 1 -13 175315. 160667. 4775. o
8491 1 1 1 13 237573. 254639. 3203. o
8492 1 1 1 -13 237493. 236455. 3558. o
8493 2 2 1 -13 198049. 215098. 4428. o
8493 1 2 1 13 198049. 215098. 4428. o
8494 2 2 1 13 197966. 203443. 4944. o
8494 1 2 1 -13 197966. 203443. 4944. o
8495 1 3 1 13 15578. 13119. 2810. o
8496 1 3 1 -13 15502. 11167. 2873. o
8497 1 4 1 13 16080. 12936. 2811. o
8498 1 4 1 -13 16105. 12692. 2811. o
8499 1 5 1 13 11110. 11960. 2684. o
8500 1 5 1 -13 11020. 10312. 2686. o
8501 1 6 1 13 7477. 11838. 3780. o
8502 1 6 1 -13 7571. 13119. 3840. o
8503 1 7 1 13 242. 2868. 2501. <
8504 1 7 1 -13 226. 1037. 2685. <
8505 1 8 1 13 15785. 20747. 2369. o
8506 1 8 1 -13 16390. 16781. 2623. o
8507 1 9 1 13 14752. 16048. 2378. o
8508 1 9 1 -13 14685. 16659. 2437. o
8509 2 -2 3 -13 128453. 142727. 3705. o
8509 1 10 1 13 128453. 142727. 3705. o
8510 2 -2 3 13 127804. 134184. 4095. o
8510 1 10 1 -13 127804. 134184. 4095. o
8511 1 11 1 13 115244. 130096. 2362. o
8512 1 11 1 -13 115191. 122957. 2464. o
8513 1 12 1 13 5997. 6712. 2135. o
8514 1 12 1 -13 5911. 4821. 2136. o
8515 1 13 1 13 80518. 85490. 2270. o
8516 1 13 1 -13 80516. 82622. 2360. o
8517 2 -4 4 -13 76493. 84147. 3368. o
8517 1 14 1 13 76493. 84147. 3368. o
8518 2 -4 4 13 77744. 85856. 3426. o
8518 1 14 1 -13 77744. 85856. 3426. o
8519 1 15 1 13 102. 2441. 2135. <
8520 1 15 1 -13 123. 6041. 2255. o
8521 1 16 1 13 3323. 2929. 2136. <
8522 1 16 1 -13 3257. 3478. 2258. <
8523 1 17 1 13 7450. 6712. 2197. o
8524 1 17 1 -13 7448. 5492. 2259. o
8525 2 -6 5 -13 29598. 30632. 3170. o
8525 1 18 1 13 29598. 30632. 3170. o
8526 2 -6 5 13 29019. 30632. 3352. o
8526 1 18 1 -13 29019. 30632. 3352. o
8527 1 19 1 13 7887. 4699. 2138. o
8528 1 19 1 -13 7851. 11289. 2131. o
8529 1 20 1 13 40. 1220. 2258. <
8530 1 20 1 -13 44. -2990. 2074. <
8531 1 21 1 13 41096. 38199. 2878. o
8532 1 21 1 -13 41235. 40152. 2202. o
8533 2 -8 6 -13 19922. 25934. 4324. o
8533 1 22 1 13 19922. 25934. 4324. o
8534 2 -8 6 13 19802. 25568. 2426. o
8534 1 22 1 -13 19802. 25568. 2426. o
8535 1 23 1 13 4539. 6834. 2806. o
8536 1 23 1 -13 4559. 8360. 1643. o
8537 1 24 1 13 12195. 6956. 2872. o
8538 1 24 1 -13 12051. 11899. 1587. o
8539 1 25 1 13 61. 2380. 2868. <
8540 1 25 1 -13 62. 549. 1586. <
8541 2 -10 7 -13 20341. 5126. 4281. <
8541 1 26 1 13 20341. 5126. 4281. <
8542 2 -10 7 13 20464. 21967. 2498. o
8542 1 26 1 -13 20464. 21967. 2498. o
8543 1 27 1 13 7737. 9397. 2928. o
8544 1 27 1 -13 7800. 7567. 1648. o
8545 1 28 1 13 1426. 1220. 2746. <
8546 1 28 1 -13 1405. 4882. 1584. o
8547 1 29 1 13 12068. 9031. 3054. o
8548 1 29 1 -13 12152. 14279. 1643. o
8549 2 -12 8 -13 11612. 9153. 3907. o
8549 1 30 1 13 11612. 9153. 3907. o
8550 2 -12 8 13 11452. 14828. 2497. o
8550 1 30 1 -13 11452. 14828. 2497. o
8551 1 31 1 13 1654. 5858. 2927. <
8552 1 31 1 -13 1667. 6346. 1705. o
8553 1 32 1 13 465. 5797. 2988. <
8554 1 32 1 -13 462. 6163. 1766. o
8555 2 20 -6 -13 18640. 12814. 4033. o
8555 1 -28 2 13 18640. 12814. 4033. o
8556 2 20 -6 13 18742. 21601. 2312. o
8556 1 -28 2 -13 18742. 21601. 2312. o
8557 2 18 -5 -13 27274. 20564. 4220. o
8557 1 -24 2 13 27274. 20564. 4220. o
8558 2 18 -5 13 27078. 26971. 2197. o
8558 1 -24 2 -13 27078. 26971. 2197. o
8559 2 16 -4 -13 39650. 40030. 2928. o
8559 1 -20 2 13 39650. 40030. 2928. o
8560 2 16 -4 13 39043. 48756. 2950. o
8560 1 -20 2 -13 39043. 48756. 2950. o
8561 2 14 -3 -13 49584. 51440. 3043. o
8561 1 -16 2 13 49584. 51440. 3043. o
8562 2 14 -3 13 50348. 54796. 3153. o
8562 1 -16 2 -13 50348. 54796. 3153. o
8563 2 12 -2 -13 431063. 450332. 3839. o
8563 1 -12 2 13 431063. 450332. 3839. o
8564 2 12 -2 13 432693. 445451. 4037. o
8564 1 -12 2 -13 432693. 445451. 4037. o
8565 2 10 -1 -13 31771. 36490. 3527. o
8565 1 -8 2 13 31771. 36490. 3527. o
8566 2 10 -1 13 31849. 37894. 3462. o
8566 1 -8 2 -13 31849. 37894. 3462. o
8567 2 8 0 -13 23697. 23310. 4028. o
8567 1 -4 2 13 23697. 23310. 4028. o
8568 2 8 0 13 23788. 24591. 4026. o
8568 1 -4 2 -13 23788. 24591. 4026. o
8569 1 1 2 13 11271. 15072. 2924. o
8570 1 1 2 -13 11335. 9458. 3236. o
8571 1 2 2 13 28446. 31731. 2981. o
8572 1 2 2 -13 27837. 32463. 3038. o
8573 1 3 2 13 2330. 5553. 2867. <
8574 1 3 2 -13 2255. 2807. 2929. <
8575 2 4 2 -13 20557. 20137. 4455. o
8575 1 4 2 13 20557. 20137. 4455. o
8576 2 4 2 13 20524. 23920. 5061. o
8576 1 4 2 -13 20524. 23920. 5061. o
8577 1 5 2 13 8409. 9092. 2745. o
8578 1 5 2 -13 8223. 8360. 2868. o
8579 1 6 2 13 22536. 24835. 2679. o
8580 1 6 2 -13 22669. 23493. 2805. o
8581 1 7 2 13 4668. 6590. 2745. o
8582 1 7 2 -13 4721. 3844. 2624. <
8583 2 2 3 -13 22545. 27764. 3774. o
8583 1 8 2 13 22545. 27764. 3774. o
8584 2 2 3 13 22481. 28680. 3894. o
8584 1 8 2 -13 22481. 28680. 3894. o
8585 1 9 2 13 605. 549. 2502. <
8586 1 9 2 -13 654. 3722. 2623. <
8587 1 10 2 13 25322. 32951. 2415. o
8588 1 10 2 -13 25499. 30083. 2488. o
8589 1 11 2 13 76171. 81280. 2458. o
8590 1 11 2 -13 76683. 72554. 2715. o
8591 1 12 2 13 354519. 407435. 3328. o
8592 1 12 2 -13 356595. 386138. 4160. o
8593 1 13 2 13 3009. 3417. 2197. <
8594 1 13 2 -13 3137. 2380. 2258. <
8595 1 14 2 13 185. 2502. 2135. <
8596 1 14 2 -13 204. 0. 2136. <
8597 1 15 2 13 7412. 10801. 2254. o
8598 1 15 2 -13 7158. 10679. 2193. o
8599 2 -2 5 -13 51773. 59068. 3262. o
8599 1 16 2 13 51773. 59068. 3262. o
8600 2 -2 5 13 52558. 52844. 3660. o
8600 1 16 2 -13 52558. 52844. 3660. o
8601 1 17 2 13 330. 1220. 2197. <
8602 1 17 2 -13 318. 3539. 2196. <
8603 1 18 2 13 570. 976. 2136. <
8604 1 18 2 -13 586. 2258. 2074. <
8605 1 19 2 13 7410. 11594. 2436. o
8606 1 19 2 -13 7470. 10496. 2315. o
8607 2 -4 6 -13 38788. 34599. 5134. o
8607 1 20 2 13 38788. 34599. 5134. o
8608 2 -4 6 13 38189. 46498. 3512. o
8608 1 20 2 -13 38189. 46498. 3512. o
8609 1 21 2 13 13481. 15133. 3110. o
8610 1 21 2 -13 13616. 11838. 1895. o
8611 1 22 2 13 26075. 23920. 3178. o
8612 1 22 2 -13 26143. 25018. 1713. o
8613 1 23 2 13 1159. 5736. 2988. <
8614 1 23 2 -13 1111. 1526. 1770. <
8615 2 -6 7 -13 27955. 26361. 4579. o
8615 1 24 2 13 27955. 26361. 4579. o
8616 2 -6 7 13 27718. 31609. 2857. o
8616 1 24 2 -13 27718. 31609. 2857. o
8617 1 25 2 13 286. 2746. 2929. <
8618 1 25 2 -13 278. 183. 1648. <
8619 1 26 2 13 6755. 6041. 3051. <
8620 1 26 2 -13 6749. 9336. 1766. o
8621 1 27 2 13 2805. 6224. 2988. o
8622 1 27 2 -13 2766. 2319. 1709. <
8623 2 -8 8 -13 17925. 20686. 4818. o
8623 1 28 2 13 17925. 20686. 4818. o
8624 2 -8 8 13 17952. 21723. 2677. o
8624 1 28 2 -13 17952. 21723. 2677. o
8625 1 29 2 13 2820. 6651. 3110. o
8626 1 29 2 -13 2777. 6590. 1705. o
8627 1 30 2 13 16710. 20503. 3228. o
8628 1 30 2 -13 16855. 17635. 1706. o
8629 1 31 2 13 5248. 11716. 3107. o
8630 1 31 2 -13 5268. 9214. 1765. o
8631 2 24 -6 -13 3057. 3722. 4454. <
8631 1 -30 3 13 3057. 3722. 4454. <
8632 2 24 -6 13 2972. 8299. 2254. o
8632 1 -30 3 -13 2972. 8299. 2254. o
8633 2 22 -5 -13 38701. 40396. 3901. o
8633 1 -26 3 13 38701. 40396. 3901. o
8634 2 22 -5 13 39320. 33073. 2344. o
8634 1 -26 3 -13 39320. 33073. 2344. o
8635 2 20 -4 -13 33466. 35758. 4328. o
8635 1 -22 3 13 33466. 35758. 4328. o
8636 2 20 -4 13 33557. 31304. 2266. o
8636 1 -22 3 -13 33557. 31304. 2266. o
8637 2 18 -3 -13 15139. 21479. 3102. o
8637 1 -18 3 13 15139. 21479. 3102. o
8638 2 18 -3 13 15050. 13180. 3114. o
8638 1 -18 3 -13 15050. 13180. 3114. o
8639 2 16 -2 -13 68754. 76886. 3432. o
8639 1 -14 3 13 68754. 76886. 3432. o
8640 2 16 -2 13 68140. 79876. 3471. o
8640 1 -14 3 -13 68140. 79876. 3471. o
8641 2 14 -1 -13 64766. 67489. 3526. o
8641 1 -10 3 13 64766. 67489. 3526. o
8642 2 14 -1 13 64025. 65963. 3468. o
8642 1 -10 3 -13 64025. 65963. 3468. o
8643 2 12 0 -13 105326. 122773. 3953. o
8643 1 -6 3 13 105326. 122773. 3953. o
8644 2 12 0 13 104643. 118014. 3926. o
8644 1 -6 3 -13 104643. 118014. 3926. o
8645 2 10 1 -13 93806. 92873. 4764. o
8645 1 -2 3 13 93806. 92873. 4764. o
8646 2 10 1 13 93961. 88114. 4365. o
8646 1 -2 3 -13 93961. 88114. 4365. o
8647 1 1 3 13 104898. 108861. 3075. o
8648 1 1 3 -13 104821. 97511. 3354. o
8649 2 8 2 -13 71246. 79937. 4291. o
8649 1 2 3 13 71246. 79937. 4291. o
8650 2 8 2 13 71276. 77130. 4796. o
8650 1 2 3 -13 71276. 77130. 4796. o
8651 1 3 3 13 12219. 10984. 2808. o
8652 1 3 3 -13 12386. 11777. 2869. o
8653 1 4 3 13 28828. 30693. 2863. o
8654 1 4 3 -13 28846. 32707. 3102. o
8655 1 5 3 13 20569. 23127. 2802. o
8656 1 5 3 -13 21092. 14584. 2878. o
8657 2 6 3 -13 117549. 128937. 4493. o
8657 1 6 3 13 117549. 128937. 4493. o
8658 2 6 3 13 116890. 115329. 4587. o
8658 1 6 3 -13 116890. 115329. 4587. o
8659 1 7 3 13 5546. 8970. 2743. o
8660 1 7 3 -13 5368. 6224. 2990. o
8661 1 8 3 13 17892. 21662. 2616. o
8662 1 8 3 -13 17756. 18794. 2805. o
8663 1 9 3 13 13470. 13730. 2562. o
8664 1 9 3 -13 13353. 15133. 2804. o
8665 2 4 4 -13 49201. 57237. 3875. o
8665 1 10 3 13 49201. 57237. 3875. o
8666 2 4 4 13 48741. 46010. 4401. o
8666 1 10 3 -13 48741. 46010. 4401. o
8667 1 11 3 13 29194. 32463. 2675. o
8668 1 11 3 -13 29792. 31487. 2557. o
8669 1 12 3 13 23138. 21357. 2628. o
8670 1 12 3 -13 22900. 22272. 2808. o
8671 1 13 3 13 12884. 15560. 2803. o
8672 1 13 3 -13 12908. 17086. 2495. o
8673 2 2 5 -13 75886. 81035. 5349. o
8673 1 14 3 13 75886. 81035. 5349. o
8674 2 2 5 13 75536. 85368. 4035. o
8674 1 14 3 -13 75536. 85368. 4035. o
8675 1 15 3 13 7680. 10374. 2377. o
8676 1 15 3 -13 7929. 8482. 2440. o
8677 1 16 3 13 15031. 14706. 2380. o
8678 1 16 3 -13 15190. 15194. 2380. o
8679 1 17 3 13 5327. 6102. 2440. o
8680 1 17 3 -13 5305. 3966. 2380. <
8681 1 18 3 -13 12370. 16232. 3352. o
8682 1 19 3 13 7126. 7994. 2684. o
8683 1 19 3 -13 7231. 12326. 2068. o
8684 1 20 3 13 16293. 19344. 3168. o
8685 1 20 3 -13 16368. 20686. 2003. o
8686 1 21 3 13 15485. 9153. 3484. o
8687 1 21 3 -13 15118. 19893. 1941. o
8688 2 -2 7 -13 33898. 26300. 5259. o
8688 1 22 3 13 33898. 26300. 5259. o
8689 2 -2 7 13 33956. 35270. 2680. o
8689 1 22 3 -13 33956. 35270. 2680. o
8690 1 23 3 13 2668. -1098. 3234. <
8691 1 23 3 -13 2698. 5065. 1646. o
8692 1 24 3 13 1693. 7506. 3231. o
8693 1 24 3 -13 1703. 1770. 1648. <
8694 1 25 3 13 3119. 5553. 3355. <
8695 1 25 3 -13 3087. 7567. 1765. o
8696 2 -4 8 -13 36396. 48572. 5220. o
8696 1 26 3 13 36396. 48572. 5220. o
8697 2 -4 8 13 36945. 34538. 2815. o
8697 1 26 3 -13 36945. 34538. 2815. o
8698 1 27 3 13 11413. 11106. 3173. o
8699 1 27 3 -13 11379. 13058. 1705. o
8700 1 28 3 13 8474. 9641. 3233. o
8701 1 28 3 -13 8388. 12448. 1702. o
8702 1 29 3 13 5599. 6895. 3111. o
8703 1 29 3 -13 5456. 7933. 1706. o
8704 2 -6 9 -13 568. 1403. 4882. <
8704 1 30 3 13 568. 1403. 4882. <
8705 2 -6 9 13 512. 3051. 2501. <
8705 1 30 3 -13 512. 3051. 2501. <
8706 2 26 -5 -13 5502. 10984. 4513. o
8706 1 -28 4 13 5502. 10984. 4513. o
8707 2 26 -5 13 5712. 9458. 2621. o
8707 1 -28 4 -13 5712. 9458. 2621. o
8708 2 24 -4 -13 129737. 108556. 5550. o
8708 1 -24 4 13 129737. 108556. 5550. o
8709 2 24 -4 13 130098. 121492. 2966. o
8709 1 -24 4 -13 130098. 121492. 2966. o
8710 2 22 -3 -13 7782. 10007. 4148. o
8710 1 -20 4 13 7782. 10007. 4148. o
8711 2 22 -3 13 7655. 6590. 3174. o
8711 1 -20 4 -13 7655. 6590. 3174. o
8712 2 20 -2 -13 30552. 35514. 3465. o
8712 1 -16 4 13 30552. 35514. 3465. o
8713 2 20 -2 13 30919. 33073. 3289. o
8713 1 -16 4 -13 30919. 33073. 3289. o
8714 2 18 -1 -13 7760. 11533. 3292. o
8714 1 -12 4 13 7760. 11533. 3292. o
8715 2 18 -1 13 7825. 9336. 3233. o
8715 1 -12 4 -13 7825. 9336. 3233. o
8716 2 16 0 -13 25389. 32829. 3890. o
8716 1 -8 4 13 25389. 32829. 3890. o
8717 2 16 0 13 25529. 29412. 3898. o
8717 1 -8 4 -13 25529. 29412. 3898. o
8718 2 14 1 -13 20685. 25446. 4264. o
8718 1 -4 4 13 20685. 25446. 4264. o
8719 2 14 1 13 20347. 24225. 4205. o
8719 1 -4 4 -13 20347. 24225. 4205. o
8720 1 1 4 13 60257. 57176. 3188. o
8721 1 1 4 -13 60355. 62485. 3040. o
8722 1 2 4 13 10129. 9031. 2808. o
8723 1 2 4 -13 10176. 12753. 3109. o
8724 1 3 4 13 35862. 32463. 2757. o
8725 1 3 4 -13 35647. 31548. 3002. o
8726 2 10 3 -13 14500. 21296. 4019. o
8726 1 4 4 13 14500. 21296. 4019. o
8727 2 10 3 13 14527. 20808. 4570. o
8727 1 4 4 -13 14527. 20808. 4570. o
8728 1 5 4 13 2813. 5187. 2745. <
8729 1 5 4 -13 2593. 8177. 2926. o
8730 1 6 4 13 3573. 6468. 2744. o
8731 1 6 4 -13 3639. 5736. 2928. <
8732 1 7 4 13 129. 1831. 2807. <
8733 1 7 4 -13 126. 2380. 2685. <
8734 2 8 4 -13 28162. 31975. 4081. o
8734 1 8 4 13 28162. 31975. 4081. o
8735 2 8 4 13 28218. 32524. 4569. o
8735 1 8 4 -13 28218. 32524. 4569. o
8736 1 9 4 13 10843. 10252. 2808. o
8737 1 9 4 -13 10857. 12509. 2744. o
8738 1 10 4 13 52407. 58031. 2592. o
8739 1 10 4 -13 52218. 54980. 2854. o
8740 1 11 4 13 45295. 48878. 2729. o
8741 1 11 4 -13 44154. 47779. 2791. o
8742 2 6 5 -13 6847. 4332. 3662. <
8742 1 12 4 13 6847. 4332. 3662. <
8743 2 6 5 13 6761. 6346. 4333. <
8743 1 12 4 -13 6761. 6346. 4333. <
8744 1 13 4 13 4570. 3783. 2441. <
8745 1 13 4 -13 4660. 5065. 2441. o
8746 1 14 4 13 6629. 7384. 2501. o
8747 1 14 4 -13 6575. 7017. 2685. o
8748 1 15 4 13 2533. 793. 2502. <
8749 1 15 4 -13 2387. 366. 2563. <
8750 2 4 6 -13 27448. 21174. 5987. o
8750 1 16 4 13 27448. 21174. 5987. o
8751 2 4 6 13 27650. 28802. 3720. o
8751 1 16 4 -13 27650. 28802. 3720. o
8752 1 17 4 13 16808. 18611. 2865. o
8753 1 17 4 -13 16496. 20259. 2372. o
8754 1 18 4 13 32572. 38748. 2785. o
8755 1 18 4 -13 32792. 38260. 2111. o
8756 1 19 4 13 12045. 12997. 2684. o
8757 1 19 4 -13 11950. 11716. 2014. o
8758 2 2 7 -13 1153. 1159. 5187. <
8758 1 20 4 13 1153. 1159. 5187. <
8759 2 2 7 13 1032. -1037. 3295. <
8759 1 20 4 -13 1032. -1037. 3295. <
8760 1 21 4 13 10155. 6163. 3419. <
8761 1 21 4 -13 10202. 8909. 1893. o
8762 1 22 4 13 163. 4149. 3355. <
8763 1 22 4 -13 156. 0. 1892. <
8764 1 23 4 13 64626. 64133. 3786. o
8765 1 23 4 -13 64932. 64194. 2081. o
8766 1 24 4 13 106729. 109044. 6336. o
8767 1 24 4 -13 107189. 117465. 3512. o
8768 1 25 4 13 15529. 13852. 3541. o
8769 1 25 4 -13 15486. 12448. 1837. o
8770 1 26 4 13 367. 2990. 3234. <
8771 1 26 4 -13 365. 6346. 1705. o
8772 1 27 4 13 2626. 3234. 3417. <
8773 1 27 4 -13 2658. 4516. 1830. o
8774 2 -2 9 -13 5894. 6224. 5309. <
8774 1 28 4 13 5894. 6224. 5309. <
8775 2 -2 9 13 6075. 6468. 2746. o
8775 1 28 4 -13 6075. 6468. 2746. o
8776 1 29 4 13 404. 5004. 3477. <
8777 1 29 4 -13 383. 5736. 1828. o
8778 2 28 -4 -13 8243. 3234. 4578. <
8778 1 -26 5 13 8243. 3234. 4578. <
8779 2 28 -4 13 8066. 14767. 2370. o
8779 1 -26 5 -13 8066. 14767. 2370. o
8780 2 26 -3 -13 24162. 23432. 5066. o
8780 1 -22 5 13 24162. 23432. 5066. o
8781 2 26 -3 13 23726. 25262. 2559. o
8781 1 -22 5 -13 23726. 25262. 2559. o
8782 2 24 -2 -13 13403. 11960. 4700. o
8782 1 -18 5 13 13403. 11960. 4700. o
8783 2 24 -2 13 13239. 14401. 3111. o
8783 1 -18 5 -13 13239. 14401. 3111. o
8784 2 22 -1 -13 25435. 31365. 3526. o
8784 1 -14 5 13 25435. 31365. 3526. o
8785 2 22 -1 13 26137. 29900. 3592. o
8785 1 -14 5 -13 26137. 29900. 3592. o
8786 2 20 0 -13 21815. 26483. 3775. o
8786 1 -10 5 13 21815. 26483. 3775. o
8787 2 20 0 13 21696. 20137. 3420. o
8787 1 -10 5 -13 21696. 20137. 3420. o
8788 2 18 1 -13 25435. 29412. 3959. o
8788 1 -6 5 13 25435. 29412. 3959. o
8789 2 18 1 13 25712. 30205. 3713. o
8789 1 -6 5 -13 25712. 30205. 3713. o
8790 2 16 2 -13 78805. 91287. 4389. o
8790 1 -2 5 13 78805. 91287. 4389. o
8791 2 16 2 13 78096. 91043. 4325. o
8791 1 -2 5 -13 78096. 91043. 4325. o
8792 1 1 5 13 15778. 16414. 2806. o
8793 1 1 5 -13 16110. 16476. 2989. o
8794 2 14 3 -13 83726. 67184. 4827. o
8794 1 2 5 13 83726. 67184. 4827. o
8795 2 14 3 13 83260. 93667. 5138. o
8795 1 2 5 -13 83260. 93667. 5138. o
8796 1 3 5 13 5736. 7261. 2867. o
8797 1 3 5 -13 5660. 6956. 3172. o
8798 1 4 5 13 9296. 9214. 2929. o
8799 1 4 5 -13 9280. 6651. 2992. o
8800 1 5 5 13 2767. 1403. 2685. <
8801 1 5 5 -13 2529. 6712. 3110. o
8802 2 12 4 -13 20683. 23310. 4085. o
8802 1 6 5 13 20683. 23310. 4085. o
8803 2 12 4 13 20854. 14950. 4887. o
8803 1 6 5 -13 20854. 14950. 4887. o
8804 1 7 5 13 915. 2990. 2562. <
8805 1 7 5 -13 902. 3478. 2928. <
8806 1 8 5 13 32745. 39785. 2782. o
8807 1 8 5 -13 32606. 32890. 2928. o
8808 1 9 5 13 12399. 11899. 2686. o
8809 1 9 5 -13 12126. 12082. 2929. o
8810 2 10 5 -13 25812. 27154. 3842. o
8810 1 10 5 13 25812. 27154. 3842. o
8811 2 10 5 13 25758. 28375. 4511. o
8811 1 10 5 -13 25758. 28375. 4511. o
8812 1 11 5 13 8721. 13547. 2618. o
8813 1 11 5 -13 8825. 12326. 2925. o
8814 1 12 5 13 286. 2746. 2684. <
8815 1 12 5 -13 287. -183. 2807. <
8816 1 13 5 13 2155. 2624. 2563. <
8817 1 13 5 -13 2137. 1831. 2624. <
8818 2 8 6 -13 24449. 25751. 6162. o
8818 1 14 5 13 24449. 25751. 6162. o
8819 2 8 6 13 25204. 24713. 4516. o
8819 1 14 5 -13 25204. 24713. 4516. o
8820 1 15 5 13 22074. 21357. 3662. o
8821 1 15 5 -13 22500. 22090. 2381. o
8822 1 16 5 13 10731. 10252. 3357. o
8823 1 16 5 -13 10604. 11594. 2256. o
8824 1 17 5 13 25817. 25934. 2868. o
8825 1 17 5 -13 26386. 28008. 2252. o
8826 2 6 7 -13 10321. 2746. 5372. <
8826 1 18 5 13 10321. 2746. 5372. <
8827 2 6 7 13 10110. 8970. 2808. o
8827 1 18 5 -13 10110. 8970. 2808. o
8828 1 19 5 13 16092. 12204. 3543. o
8829 1 19 5 -13 15998. 16292. 2013. o
8830 1 20 5 13 5498. 1892. 3662. <
8831 1 20 5 -13 5469. 8299. 1950. o
8832 1 21 5 13 4416. 5736. 3783. <
8833 1 21 5 -13 4363. 4516. 2075. o
8834 2 4 8 -13 17674. 19405. 5490. o
8834 1 22 5 13 17674. 19405. 5490. o
8835 2 4 8 13 17355. 14889. 2933. o
8835 1 22 5 -13 17355. 14889. 2933. o
8836 1 23 5 13 16276. 12997. 3665. o
8837 1 23 5 -13 16461. 17452. 2011. o
8838 1 24 5 13 17101. 18855. 3598. o
8839 1 24 5 -13 17093. 17574. 1952. o
8840 1 25 5 13 3049. 6224. 3538. <
8841 1 25 5 -13 3056. 7200. 1888. o
8842 2 2 9 -13 9298. 15987. 5976. o
8842 1 26 5 13 9298. 15987. 5976. o
8843 2 2 9 13 9160. 8421. 2930. o
8843 1 26 5 -13 9160. 8421. 2930. o
8844 1 27 5 13 7816. 11655. 3597. o
8845 1 27 5 -13 7940. 9153. 1951. o
8846 2 30 -3 -13 12546. 8421. 4945. <
8846 1 -24 6 13 12546. 8421. 4945. <
8847 2 30 -3 13 12694. 20076. 2672. o
8847 1 -24 6 -13 12694. 20076. 2672. o
8848 2 28 -2 -13 15350. 12936. 5371. o
8848 1 -20 6 13 15350. 12936. 5371. o
8849 2 28 -2 13 15135. 20381. 2553. o
8849 1 -20 6 -13 15135. 20381. 2553. o
8850 2 26 -1 -13 5269. 3295. 3357. <
8850 1 -16 6 13 5269. 3295. 3357. <
8851 2 26 -1 13 5369. 4271. 3662. <
8851 1 -16 6 -13 5369. 4271. 3662. <
8852 2 24 0 -13 102058. 102454. 3780. o
8852 1 -12 6 13 102058. 102454. 3780. o
8853 2 24 0 13 102037. 102698. 4023. o
8853 1 -12 6 -13 102037. 102698. 4023. o
8854 2 22 1 -13 16457. 21784. 4020. o
8854 1 -8 6 13 16457. 21784. 4020. o
8855 2 22 1 13 16042. 19832. 3656. o
8855 1 -8 6 -13 16042. 19832. 3656. o
8856 2 20 2 -13 26487. 28802. 4267. o
8856 1 -4 6 13 26487. 28802. 4267. o
8857 2 20 2 13 26821. 25751. 4151. o
8857 1 -4 6 -13 26821. 25751. 4151. o
8858 1 1 6 13 30692. 30449. 3235. o
8859 1 1 6 -13 30123. 31548. 3108. o
8860 1 2 6 13 39568. 43264. 3037. o
8861 1 2 6 -13 39732. 42959. 3223. o
8862 1 3 6 13 3822. 5187. 2928. <
8863 1 3 6 -13 3559. 6895. 3049. o
8864 2 16 4 -13 24255. 24286. 4149. o
8864 1 4 6 13 24255. 24286. 4149. o
8865 2 16 4 13 24418. 21113. 4642. o
8865 1 4 6 -13 24418. 21113. 4642. o
8866 1 5 6 13 10088. 8055. 2931. o
8867 1 5 6 -13 9976. 7994. 3053. o
8868 1 6 6 13 1542. 4210. 2928. <
8869 1 6 6 -13 1527. 305. 3112. <
8870 1 7 6 13 11432. 8238. 2749. o
8871 1 7 6 -13 11262. 13302. 2988. o
8872 2 14 5 -13 17629. 14645. 3848. o
8872 1 8 6 13 17629. 14645. 3848. o
8873 2 14 5 13 17026. 18916. 4819. o
8873 1 8 6 -13 17026. 18916. 4819. o
8874 1 9 6 13 21058. 24591. 2799. o
8875 1 9 6 -13 21396. 22639. 3110. o
8876 1 10 6 13 3428. 5187. 2684. <
8877 1 10 6 -13 3492. 5004. 3111. <
8878 1 11 6 13 103818. 117465. 3231. o
8879 1 11 6 -13 104710. 108861. 3444. o
8880 2 12 6 -13 30628. 43813. 6447. o
8880 1 12 6 13 30628. 43813. 6447. o
8881 2 12 6 13 30790. 38260. 4132. o
8881 1 12 6 -13 30790. 38260. 4132. o
8882 1 13 6 13 1455. -1464. 3112. <
8883 1 13 6 -13 1445. 4638. 2684. <
8884 1 14 6 13 544. 5126. 3355. <
8885 1 14 6 -13 544. 1892. 2441. <
8886 1 15 6 13 20781. 23981. 3350. o
8887 1 15 6 -13 21030. 19588. 2505. o
8888 2 10 7 13 7211. 3661. 3358. <
8888 1 16 6 -13 7211. 3661. 3358. <
8889 1 17 6 13 837. 5553. 4087. <
8890 1 17 6 -13 795. 3112. 2806. <
8891 1 18 6 13 1709. -1770. 4271. <
8892 1 18 6 -13 1725. 4027. 2623. <
8893 1 19 6 13 30. 6041. 4087. <
8894 1 19 6 -13 27. 5187. 2011. o
8895 2 8 8 -13 13690. 19038. 5426. o
8895 1 20 6 13 13690. 19038. 5426. o
8896 2 8 8 13 13457. 12082. 3114. o
8896 1 20 6 -13 13457. 12082. 3114. o
8897 1 21 6 13 13235. 14950. 3782. o
8898 1 21 6 -13 13032. 17208. 2005. o
8899 1 22 6 13 11476. 7506. 3786. <
8900 1 22 6 -13 11507. 12387. 2012. o
8901 1 23 6 13 24606. 21235. 3971. o
8902 1 23 6 -13 24026. 21662. 2142. o
8903 2 6 9 -13 12713. 9031. 6409. <
8903 1 24 6 13 12713. 9031. 6409. <
8904 2 6 9 13 12849. 16109. 3230. o
8904 1 24 6 -13 12849. 16109. 3230. o
8905 2 30 -1 -13 7332. 7872. 5736. <
8905 1 -18 7 13 7332. 7872. 5736. <
8906 2 30 -1 13 7300. 10862. 2620. o
8906 1 -18 7 -13 7300. 10862. 2620. o
8907 2 28 0 -13 22692. 21052. 3786. o
8907 1 -14 7 13 22692. 21052. 3786. o
8908 2 28 0 13 22450. 19222. 3727. o
8908 1 -14 7 -13 22450. 19222. 3727. o
8909 2 26 1 -13 26975. 22212. 3852. o
8909 1 -10 7 13 26975. 22212. 3852. o
8910 2 26 1 13 26861. 20747. 3732. o
8910 1 -10 7 -13 26861. 20747. 3732. o
8911 2 24 2 -13 16316. 13913. 4213. o
8911 1 -6 7 13 16316. 13913. 4213. o
8912 2 24 2 13 16344. 11533. 4336. o
8912 1 -6 7 -13 16344. 11533. 4336. o
8913 2 22 3 -13 9588. 11594. 4575. o
8913 1 -2 7 13 9588. 11594. 4575. o
8914 2 22 3 13 9613. 7811. 4394. <
8914 1 -2 7 -13 9613. 7811. 4394. <
8915 1 1 7 13 2886. 3417. 3051. <
8916 1 1 7 -13 2986. 7200. 3049. o
8917 2 20 4 -13 2562. 6041. 4331. <
8917 1 2 7 13 2562. 6041. 4331. <
8918 2 20 4 13 2625. 5126. 4759. <
8918 1 2 7 -13 2625. 5126. 4759. <
8919 1 3 7 13 12155. 10679. 3296. o
8920 1 3 7 -13 12173. 13608. 3233. o
8921 1 4 7 13 3337. 1770. 3967. <
8922 1 4 7 -13 3248. 6956. 3171. o
8923 1 5 7 13 20414. 18733. 4090. o
8924 1 5 7 -13 20927. 21296. 3294. o
8925 2 18 5 -13 12566. 10557. 4395. o
8925 1 6 7 13 12566. 10557. 4395. o
8926 2 18 5 13 12588. 10862. 5249. o
8926 1 6 7 -13 12588. 10862. 5249. o
8927 1 7 7 13 12541. 9885. 3480. o
8928 1 7 7 -13 12834. 10923. 3297. o
8929 1 8 7 13 398. -1526. 3478. <
8930 1 8 7 -13 402. 1953. 3051. <
8931 1 9 7 13 12140. 13180. 3660. o
8932 1 9 7 -13 12095. 10007. 3053. o
8933 2 16 6 -13 24157. 16476. 6474. o
8933 1 10 7 13 24157. 16476. 6474. o
8934 2 16 6 13 24039. 22272. 4579. o
8934 1 10 7 -13 24039. 22272. 4579. o
8935 1 11 7 13 9874. 7811. 3297. o
8936 1 11 7 -13 10019. 10374. 3112. o
8937 1 12 7 13 3637. 3783. 3295. <
8938 1 12 7 -13 3616. 5248. 3050. <
8939 1 13 7 13 4963. 9519. 3231. o
8940 1 13 7 -13 5043. 6041. 2990. o
8941 2 14 7 -13 16848. 12021. 6776. <
8941 1 14 7 13 16848. 12021. 6776. <
8942 2 14 7 13 16742. 16781. 4577. o
8942 1 14 7 -13 16742. 16781. 4577. o
8943 1 15 7 13 7297. 7200. 4699. <
8944 1 15 7 -13 7367. 7506. 3112. o
8945 1 16 7 13 952. 5431. 4209. <
8946 1 16 7 -13 904. 3234. 2990. <
8947 1 17 7 13 2246. 7384. 3903. <
8948 1 17 7 -13 2052. 7017. 2499. o
8949 2 12 8 -13 6667. 10068. 7199. <
8949 1 18 7 13 6667. 10068. 7199. <
8950 2 12 8 13 6599. 9397. 4026. o
8950 1 18 7 -13 6599. 9397. 4026. o
8951 1 19 7 13 11813. 7017. 4274. <
8952 1 19 7 -13 11814. 12814. 2623. o
8953 1 20 7 13 17590. 12814. 4642. o
8954 1 20 7 -13 17503. 21113. 2617. o
8955 1 21 7 13 3792. 5980. 4515. <
8956 1 21 7 -13 3712. 7017. 2378. o
8957 2 32 0 -13 4611. 9397. 6650. <
8957 1 -16 8 13 4611. 9397. 6650. <
8958 2 32 0 13 4705. 6895. 2684. o
8958 1 -16 8 -13 4705. 6895. 2684. o
8959 2 30 1 -13 8918. 7567. 6347. <
8959 1 -12 8 13 8918. 7567. 6347. <
8960 2 30 1 13 8965. 10618. 3904. o
8960 1 -12 8 -13 8965. 10618. 3904. o
8961 2 28 2 -13 11647. 13974. 4697. o
8961 1 -8 8 13 11647. 13974. 4697. o
8962 2 28 2 13 11776. 10007. 3907. o
8962 1 -8 8 -13 11776. 10007. 3907. o
8963 2 26 3 -13 13058. 12814. 4882. o
8963 1 -4 8 13 13058. 12814. 4882. o
8964 2 26 3 13 12950. 16109. 4330. o
8964 1 -4 8 -13 12950. 16109. 4330. o
8965 1 1 8 13 12070. 10068. 3846. o
8966 1 1 8 -13 12141. 9763. 3968. o
8967 1 2 8 13 11918. 12936. 3782. o
8968 1 2 8 -13 12223. 11106. 3601. o
8969 1 3 8 13 31453. 32280. 3904. o
8970 1 3 8 -13 31779. 27154. 4036. o
8971 2 22 5 -13 8893. 11167. 5125. o
8971 1 4 8 13 8893. 11167. 5125. o
8972 2 22 5 13 8970. 9031. 7078. <
8972 1 4 8 -13 8970. 9031. 7078. <
8973 1 5 8 13 7049. 7200. 3661. <
8974 1 5 8 -13 6900. 10984. 3964. o
8975 1 6 8 13 12413. 13486. 3599. o
8976 1 6 8 -13 12392. 9519. 3602. o
8977 1 7 8 13 6717. 7261. 3600. o
8978 1 7 8 -13 6816. 11228. 3353. o
8979 2 20 6 -13 10701. 15926. 6770. o
8979 1 8 8 13 10701. 15926. 6770. o
8980 2 20 6 13 10885. 8482. 6713. <
8980 1 8 8 -13 10885. 8482. 6713. <
8981 1 9 8 13 6048. 8421. 3599. o
8982 1 9 8 -13 5812. 10007. 3048. o
8983 1 10 8 13 15112. 12082. 3481. o
8984 1 10 8 -13 15116. 9702. 3239. o
8985 1 11 8 13 27024. 18733. 3553. o
8986 1 11 8 -13 26455. 23310. 3423. o
8987 2 18 7 -13 7894. 6895. 5858. <
8987 1 12 8 13 7894. 6895. 5858. <
8988 1 13 8 13 16292. 17147. 4637. o
8989 1 13 8 -13 16283. 18550. 3719. o
8990 1 14 8 13 9584. 4149. 4334. <
8991 1 14 8 -13 9736. 11411. 2805. o
8992 1 15 8 13 3818. 9031. 4880. <
8993 1 15 8 -13 3730. 7628. 2805. o
8994 2 16 8 -13 3359. 11655. 7320. <
8994 1 16 8 13 3359. 11655. 7320. <
8995 2 16 8 13 3405. 3722. 5431. <
8995 1 16 8 -13 3405. 3722. 5431. <
8996 2 30 3 -13 1115. 2685. 5553. <
8996 1 -6 9 13 1115. 2685. 5553. <
8997 2 30 3 13 1130. 5980. 7017. <
8997 1 -6 9 -13 1130. 5980. 7017. <
8998 2 28 4 -13 9870. 13669. 5367. o
8998 1 -2 9 13 9870. 13669. 5367. o
8999 2 28 4 13 9829. 7384. 7384. <
8999 1 -2 9 -13 9829. 7384. 7384. <
9000 1 1 9 13 906. 6224. 3843. <
9001 1 1 9 -13 947. 3234. 4942. <
9002 2 26 5 -13 10528. 7078. 5493. <
9002 1 2 9 13 10528. 7078. 5493. <
9003 2 26 5 13 10555. 13302. 7260. <
9003 1 2 9 -13 10555. 13302. 7260. <
9004 1 3 9 13 12018. 7933. 3664. o
9005 1 3 9 -13 12026. 8665. 4761. <
9006 1 4 9 13 9495. 7689. 4089. <
9007 1 4 9 -13 9163. 7994. 5126. <
9008 1 5 9 13 984. 4699. 3782. <
9009 1 5 9 -13 1059. 8726. 6283. <
9010 2 24 6 -13 3750. 5126. 5980. <
9010 1 6 9 13 3750. 5126. 5980. <
9011 1 7 9 13 5456. 7933. 4270. <
9012 1 7 9 -13 5374. 12387. 7930. <
9013 1 8 9 13 9063. 8360. 4150. o
9014 1 8 9 -13 8850. 5797. 4822. <
9015 2 0 0 -14 321482. 358130. 6780. o
9015 1 0 0 14 321482. 358130. 6780. o
9016 2 0 0 14 320989. 333234. 7112. o
9016 1 0 0 -14 320989. 333234. 7112. o
9017 1 2 0 14 91210. 94643. 4129. o
9018 1 2 0 -14 91716. 86466. 4240. o
9019 2 -2 1 -14 321532. 263060. 5353. o
9019 1 4 0 14 321532. 263060. 5353. o
9020 2 -2 1 14 325260. 251283. 5642. o
9020 1 4 0 -14 325260. 251283. 5642. o
9021 1 6 0 14 13132. 15682. 3536. o
9022 1 6 0 -14 13674. 20015. 3775. o
9023 2 -4 2 -14 32184. 32890. 3293. o
9023 1 8 0 14 32184. 32890. 3293. o
9024 2 -4 2 14 31341. 34660. 3531. o
9024 1 8 0 -14 31341. 34660. 3531. o
9025 1 10 0 14 56796. 63645. 3446. o
9026 1 10 0 -14 57389. 59312. 3408. o
9027 2 -6 3 -14 51935. 55224. 3097. o
9027 1 12 0 14 51935. 55224. 3097. o
9028 2 -6 3 14 52371. 56139. 3217. o
9028 1 12 0 -14 52371. 56139. 3217. o
9029 1 14 0 14 16519. 15743. 2991. o
9030 1 14 0 -14 16456. 30266. 5168. o
9031 2 -8 4 -14 119919. 137418. 3297. o
9031 1 16 0 14 119919. 137418. 3297. o
9032 2 -8 4 14 122008. 134489. 3414. o
9032 1 16 0 -14 122008. 134489. 3414. o
9033 1 18 0 14 693. -3661. 2867. <
9034 1 18 0 -14 673. 6407. 4148. <
9035 2 -10 5 -14 40626. 43142. 2858. o
9035 1 20 0 14 40626. 43142. 2858. o
9036 2 -10 5 14 41115. 44789. 3037. o
9036 1 20 0 -14 41115. 44789. 3037. o
9037 1 22 0 14 127072. 119539. 4509. o
9038 1 22 0 -14 127407. 125764. 3494. o
9039 2 -12 6 -14 2143. -2563. 4149. <
9039 1 24 0 14 2143. -2563. 4149. <
9040 2 -12 6 14 2112. 2807. 2258. <
9040 1 24 0 -14 2112. 2807. 2258. <
9041 1 26 0 14 7777. 4699. 4273. <
9042 1 26 0 -14 7763. 6956. 2136. o
9043 2 -14 7 -14 32541. 27459. 4463. o
9043 1 28 0 14 32541. 27459. 4463. o
9044 2 -14 7 14 32957. 35392. 2493. o
9044 1 28 0 -14 32957. 35392. 2493. o
9045 1 30 0 14 6229. 11472. 4146. o
9046 1 30 0 -14 6334. 7750. 2318. o
9047 2 18 -7 -14 2709. 2563. 3844. <
9047 1 -30 1 14 2709. 2563. 3844. <
9048 2 18 -7 14 2684. 1892. 2319. <
9048 1 -30 1 -14 2684. 1892. 2319. <
9049 2 16 -6 -14 20857. 17391. 3727. o
9049 1 -26 1 14 20857. 17391. 3727. o
9050 2 16 -6 14 20899. 21906. 2316. o
9050 1 -26 1 -14 20899. 21906. 2316. o
9051 2 14 -5 -14 174441. 166159. 4717. o
9051 1 -22 1 14 174441. 166159. 4717. o
9052 2 14 -5 14 172892. 181414. 3359. o
9052 1 -22 1 -14 172892. 181414. 3359. o
9053 2 12 -4 -14 6257. 7628. 2867. o
9053 1 -18 1 14 6257. 7628. 2867. o
9054 2 12 -4 14 6128. 3600. 2747. <
9054 1 -18 1 -14 6128. 3600. 2747. <
9055 2 10 -3 -14 145686. 147243. 3583. o
9055 1 -14 1 14 145686. 147243. 3583. o
9056 2 10 -3 14 146733. 160484. 5262. o
9056 1 -14 1 -14 146733. 160484. 5262. o
9057 2 8 -2 -14 207301. 226509. 3605. o
9057 1 -10 1 14 207301. 226509. 3605. o
9058 2 8 -2 14 204972. 222420. 3638. o
9058 1 -10 1 -14 204972. 222420. 3638. o
9059 2 6 -1 -14 31432. 37772. 3583. o
9059 1 -6 1 14 31432. 37772. 3583. o
9060 2 6 -1 14 30998. 39480. 3577. o
9060 1 -6 1 -14 30998. 39480. 3577. o
9061 2 4 0 -14 232388. 241459. 4511. o
9061 1 -2 1 14 232388. 241459. 4511. o
9062 2 4 0 14 230020. 227851. 4545. o
9062 1 -2 1 -14 230020. 227851. 4545. o
9063 1 0 1 14 19809. 18733. 3724. o
9064 1 0 1 -14 18741. 19527. 3904. o
9065 1 1 1 14 7510. 8299. 2745. o
9066 1 1 1 -14 7378. 2807. 2748. <
9067 2 2 1 -14 206675. 223274. 4425. o
9067 1 2 1 14 206675. 223274. 4425. o
9068 2 2 1 14 205384. 220101. 4452. o
9068 1 2 1 -14 205384. 220101. 4452. o
9069 1 3 1 14 53029. 53637. 2621. o
9070 1 3 1 -14 53106. 51806. 2813. o
9071 1 4 1 14 1143. 2563. 2563. <
9072 1 4 1 -14 1117. 2685. 2624. <
9073 1 5 1 14 2143. 1770. 2685. <
9074 1 5 1 -14 2058. 3295. 2624. <
9075 2 0 2 -14 32024. 31548. 3601. o
9075 1 6 1 14 32024. 31548. 3601. o
9076 2 0 2 14 31292. 23920. 3797. o
9076 1 6 1 -14 31292. 23920. 3797. o
9077 1 7 1 14 14816. 18306. 2434. o
9078 1 7 1 -14 14702. 16781. 2559. o
9079 1 8 1 14 9657. 14950. 2433. o
9080 1 8 1 -14 9529. 13791. 2435. o
9081 1 9 1 14 71772. 76581. 2401. o
9082 1 9 1 -14 71750. 75544. 2595. o
9083 2 -2 3 -14 204340. 231390. 3539. o
9083 1 10 1 14 204340. 231390. 3539. o
9084 2 -2 3 14 202252. 211620. 3896. o
9084 1 10 1 -14 202252. 211620. 3896. o
9085 1 11 1 14 40428. 43142. 2244. o
9086 1 11 1 -14 40247. 43813. 2301. o
9087 1 12 1 14 4554. 6102. 2196. o
9088 1 12 1 -14 4472. 6346. 2195. o
9089 1 13 1 14 6856. 6834. 2197. o
9090 1 13 1 -14 6942. 5919. 2747. o
9091 2 -4 4 -14 116212. 131011. 3523. o
9091 1 14 1 14 116212. 131011. 3523. o
9092 2 -4 4 14 116750. 128021. 3683. o
9092 1 14 1 -14 116750. 128021. 3683. o
9093 1 15 1 14 30096. 33866. 2305. o
9094 1 15 1 -14 30004. 33744. 2305. o
9095 1 16 1 14 16994. 20869. 2616. o
9096 1 16 1 -14 17087. 16842. 2258. o
9097 1 17 1 14 8937. 9397. 2379. o
9098 1 17 1 -14 9057. 9275. 2196. o
9099 2 -6 5 -14 6734. 9275. 3110. o
9099 1 18 1 14 6734. 9275. 3110. o
9100 2 -6 5 14 6659. 9885. 3232. o
9100 1 18 1 -14 6659. 9885. 3232. o
9101 1 19 1 14 17063. 19038. 2131. o
9102 1 19 1 -14 17032. 18550. 2132. o
9103 1 20 1 14 875. 4149. 2318. <
9104 1 20 1 -14 866. 2563. 2074. <
9105 1 21 1 14 16046. 13791. 2383. o
9106 1 21 1 -14 15909. 18977. 2068. o
9107 2 -8 6 -14 167311. 155175. 4807. o
9107 1 22 1 14 167311. 155175. 4807. o
9108 2 -8 6 14 165764. 171956. 3021. o
9108 1 22 1 -14 165764. 171956. 3021. o
9109 1 23 1 14 27113. 29534. 3106. o
9110 1 23 1 -14 27189. 27825. 1767. o
9111 1 24 1 14 1850. 7384. 2926. o
9112 1 24 1 -14 1830. 2075. 1647. <
9113 1 25 1 14 6457. 4577. 2869. <
9114 1 25 1 -14 6449. 7384. 1646. o
9115 2 -10 7 -14 23412. 26422. 4389. o
9115 1 26 1 14 23412. 26422. 4389. o
9116 2 -10 7 14 23411. 26788. 2493. o
9116 1 26 1 -14 23411. 26788. 2493. o
9117 1 27 1 14 1103. -1831. 2990. <
9118 1 27 1 -14 1074. -1342. 1647. <
9119 1 28 1 14 2018. 9214. 3047. o
9120 1 28 1 -14 1996. 4760. 1646. o
9121 1 29 1 14 243. 183. 2868. <
9122 1 29 1 -14 239. 6834. 1643. o
9123 2 -12 8 -14 4094. -183. 4516. <
9123 1 30 1 14 4094. -183. 4516. <
9124 2 -12 8 14 4052. 9275. 2559. o
9124 1 30 1 -14 4052. 9275. 2559. o
9125 1 31 1 14 1669. 9092. 2802. o
9126 1 31 1 -14 1691. 6590. 1705. o
9127 2 20 -6 -14 33148. 31365. 4092. o
9127 1 -28 2 14 33148. 31365. 4092. o
9128 2 20 -6 14 33660. 30632. 2391. o
9128 1 -28 2 -14 33660. 30632. 2391. o
9129 2 18 -5 -14 21951. 23554. 4086. o
9129 1 -24 2 14 21951. 23554. 4086. o
9130 2 18 -5 14 22025. 18123. 2206. o
9130 1 -24 2 -14 22025. 18123. 2206. o
9131 2 16 -4 -14 4472. 61. 2686. <
9131 1 -20 2 14 4472. 61. 2686. <
9132 2 16 -4 14 4214. 9275. 2742. o
9132 1 -20 2 -14 4214. 9275. 2742. o
9133 2 14 -3 -14 78977. 81524. 3094. o
9133 1 -16 2 14 78977. 81524. 3094. o
9134 2 14 -3 14 79632. 85307. 3257. o
9134 1 -16 2 -14 79632. 85307. 3257. o
9135 2 12 -2 -14 80419. 83842. 3334. o
9135 1 -12 2 14 80419. 83842. 3334. o
9136 2 12 -2 14 80364. 89578. 3292. o
9136 1 -12 2 -14 80364. 89578. 3292. o
9137 2 10 -1 -14 191597. 216440. 3736. o
9137 1 -8 2 14 191597. 216440. 3736. o
9138 2 10 -1 14 194435. 194351. 4028. o
9138 1 -8 2 -14 194435. 194351. 4028. o
9139 2 8 0 -14 34681. 33988. 3907. o
9139 1 -4 2 14 34681. 33988. 3907. o
9140 2 8 0 14 34519. 25629. 4166. o
9140 1 -4 2 -14 34519. 25629. 4166. o
9141 2 6 1 -14 32775. 38382. 4259. o
9141 1 0 2 14 32775. 38382. 4259. o
9142 2 6 1 14 33731. 27703. 4343. o
9142 1 0 2 -14 33731. 27703. 4343. o
9143 1 1 2 14 457. 671. 2929. <
9144 1 1 2 -14 512. 2807. 3112. <
9145 1 2 2 14 10283. 15499. 2739. o
9146 1 2 2 -14 10091. 11960. 2988. o
9147 1 3 2 14 20990. 15865. 2815. o
9148 1 3 2 -14 21068. 16232. 2876. o
9149 2 4 2 -14 35522. 29351. 4040. o
9149 1 4 2 14 35522. 29351. 4040. o
9150 2 4 2 14 35240. 26544. 4227. o
9150 1 4 2 -14 35240. 26544. 4227. o
9151 1 5 2 14 961. 427. 2624. <
9152 1 5 2 -14 867. 3966. 2745. <
9153 1 6 2 14 12250. 17086. 2677. o
9154 1 6 2 -14 12673. 10434. 2687. o
9155 1 7 2 14 36852. 35697. 2567. o
9156 1 7 2 -14 37399. 33988. 2636. o
9157 2 2 3 -14 185545. 210338. 4012. o
9157 1 8 2 14 185545. 210338. 4012. o
9158 2 2 3 14 187712. 173909. 4777. o
9158 1 8 2 -14 187712. 173909. 4777. o
9159 1 9 2 14 66041. 77679. 2598. o
9160 1 9 2 -14 65802. 65414. 2626. o
9161 1 10 2 14 140438. 155236. 2454. o
9162 1 10 2 -14 139802. 139981. 2866. o
9163 1 11 2 14 16728. 16598. 2380. o
9164 1 11 2 -14 16543. 16964. 2318. o
9165 2 0 4 -14 85139. 90677. 3748. o
9165 1 12 2 14 85139. 90677. 3748. o
9166 2 0 4 14 84899. 92446. 3673. o
9166 1 12 2 -14 84899. 92446. 3673. o
9167 1 13 2 14 17339. 19954. 2619. o
9168 1 13 2 -14 17447. 19038. 2315. o
9169 1 14 2 14 13028. 19038. 2491. o
9170 1 14 2 -14 13054. 13364. 2257. o
9171 1 15 2 14 1686. 7200. 2254. o
9172 1 15 2 -14 1703. 2197. 2197. <
9173 2 -2 5 -14 80469. 81218. 3535. o
9173 1 16 2 14 80469. 81218. 3535. o
9174 2 -2 5 14 81058. 82134. 3838. o
9174 1 16 2 -14 81058. 82134. 3838. o
9175 1 17 2 14 44931. 49061. 2173. o
9176 1 17 2 -14 45049. 53698. 2268. o
9177 1 18 2 14 12166. 15987. 2129. o
9178 1 18 2 -14 12280. 11411. 2320. o
9179 1 19 2 14 3267. 7811. 2132. o
9180 1 19 2 -14 3283. 3112. 2319. <
9181 2 -4 6 -14 3801. 4943. 4881. <
9181 1 20 2 14 3801. 4943. 4881. <
9182 2 -4 6 14 3659. 8604. 3292. o
9182 1 20 2 -14 3659. 8604. 3292. o
9183 1 21 2 14 5708. 2990. 2442. <
9184 1 21 2 -14 5828. 6285. 2135. o
9185 1 22 2 14 21237. 24408. 2800. o
9186 1 22 2 -14 21125. 18916. 2080. o
9187 1 23 2 14 6155. 5614. 3051. <
9188 1 23 2 -14 6187. 8055. 1706. o
9189 2 -6 7 -14 18231. 20991. 4512. o
9189 1 24 2 14 18231. 20991. 4512. o
9190 2 -6 7 14 18313. 21967. 2616. o
9190 1 24 2 -14 18313. 21967. 2616. o
9191 1 25 2 14 3610. -2197. 2990. <
9192 1 25 2 -14 3579. 5919. 1768. o
9193 1 26 2 14 10407. 5126. 2871. <
9194 1 26 2 -14 10473. 10312. 1831. o
9195 1 27 2 14 6012. 8299. 3050. o
9196 1 27 2 -14 6127. 8604. 1706. o
9197 2 -8 8 -14 31094. 25568. 4768. o
9197 1 28 2 14 31094. 25568. 4768. o
9198 2 -8 8 14 31614. 33622. 2801. o
9198 1 28 2 -14 31614. 33622. 2801. o
9199 1 29 2 14 2339. 7384. 2987. o
9200 1 29 2 -14 2354. 6041. 1767. o
9201 1 30 2 14 70. 6834. 3109. o
9202 1 30 2 -14 69. 6163. 1766. o
9203 2 22 -5 -14 45209. 50891. 4438. o
9203 1 -26 3 14 45209. 50891. 4438. o
9204 2 22 -5 14 45389. 37223. 2536. o
9204 1 -26 3 -14 45389. 37223. 2536. o
9205 2 20 -4 -14 30769. 31731. 4758. o
9205 1 -22 3 14 30769. 31731. 4758. o
9206 2 20 -4 14 30461. 32829. 3106. o
9206 1 -22 3 -14 30461. 32829. 3106. o
9207 2 18 -3 -14 13583. 15377. 3171. o
9207 1 -18 3 14 13583. 15377. 3171. o
9208 2 18 -3 14 13587. 16170. 3048. o
9208 1 -18 3 -14 13587. 16170. 3048. o
9209 2 16 -2 -14 53694. 56444. 3344. o
9209 1 -14 3 14 53694. 56444. 3344. o
9210 2 16 -2 14 53574. 60533. 3262. o
9210 1 -14 3 -14 53574. 60533. 3262. o
9211 2 14 -1 -14 203435. 210399. 3930. o
9211 1 -10 3 14 203435. 210399. 3930. o
9212 2 14 -1 14 202011. 219308. 4163. o
9212 1 -10 3 -14 202011. 219308. 4163. o
9213 2 12 0 -14 14951. 15316. 3722. o
9213 1 -6 3 14 14951. 15316. 3722. o
9214 2 12 0 14 14680. 17086. 3658. o
9214 1 -6 3 -14 14680. 17086. 3658. o
9215 2 10 1 -14 178738. 176655. 4598. o
9215 1 -2 3 14 178738. 176655. 4598. o
9216 2 10 1 14 180451. 181964. 4622. o
9216 1 -2 3 -14 180451. 181964. 4622. o
9217 1 0 3 14 14571. 17818. 3841. o
9218 1 0 3 -14 14520. 5614. 4032. <
9219 1 1 3 14 4480. 5431. 2745. <
9220 1 1 3 -14 4463. 5980. 2806. o
9221 2 8 2 -14 175649. 200941. 4673. o
9221 1 2 3 14 175649. 200941. 4673. o
9222 2 8 2 14 176452. 198622. 4708. o
9222 1 2 3 -14 176452. 198622. 4708. o
9223 1 3 3 14 155761. 157799. 3084. o
9224 1 3 3 -14 155931. 150599. 3360. o
9225 1 4 3 14 52914. 53881. 2802. o
9226 1 4 3 -14 53330. 49854. 3066. o
9227 1 5 3 14 4926. 4577. 2685. <
9228 1 5 3 -14 4940. 4821. 2807. <
9229 2 6 3 -14 4712. 4882. 3783. <
9229 1 6 3 14 4712. 4882. 3783. <
9230 2 6 3 14 4566. 8177. 4453. <
9230 1 6 3 -14 4566. 8177. 4453. <
9231 1 7 3 14 34560. 36795. 2799. o
9232 1 7 3 -14 34232. 33439. 2931. o
9233 1 8 3 14 9419. 9702. 2624. o
9234 1 8 3 -14 9335. 10252. 2867. o
9235 1 9 3 14 10059. 7261. 2687. o
9236 1 9 3 -14 9935. 7445. 2748. o
9237 2 4 4 -14 189312. 196059. 4500. o
9237 1 10 3 14 189312. 196059. 4500. o
9238 2 4 4 14 187815. 185259. 4786. o
9238 1 10 3 -14 187815. 185259. 4786. o
9239 1 11 3 14 22728. 25140. 2557. o
9240 1 11 3 -14 22564. 23188. 2745. o
9241 1 12 3 14 8559. 6285. 2504. o
9242 1 12 3 -14 8370. 9153. 2623. o
9243 1 13 3 14 4753. 7445. 2744. o
9244 1 13 3 -14 4615. 6407. 2501. o
9245 2 2 5 -14 48121. 46559. 4459. o
9245 1 14 3 14 48121. 46559. 4459. o
9246 2 2 5 14 48072. 48084. 3844. o
9246 1 14 3 -14 48072. 48084. 3844. o
9247 1 15 3 14 892. 6529. 2621. o
9248 1 15 3 -14 915. 854. 2380. <
9249 1 16 3 14 891. 549. 2502. <
9250 1 16 3 -14 896. 1159. 2319. <
9251 1 17 3 14 12708. 15255. 2376. o
9252 1 17 3 -14 12479. 14950. 2498. o
9253 2 0 6 -14 15033. 13669. 3480. o
9253 1 18 3 14 15033. 13669. 3480. o
9254 2 0 6 14 15000. 23493. 3526. o
9254 1 18 3 -14 15000. 23493. 3526. o
9255 1 19 3 14 16766. 18123. 2683. o
9256 1 19 3 -14 16868. 23249. 2426. o
9257 1 20 3 14 1050. 5614. 2622. o
9258 1 20 3 -14 1085. 4516. 1890. o
9259 1 21 3 14 19235. 19954. 3294. o
9260 1 21 3 -14 19312. 19954. 2256. o
9261 2 -2 7 -14 26785. 27642. 5186. o
9261 1 22 3 14 26785. 27642. 5186. o
9262 2 -2 7 14 26482. 31426. 3406. o
9262 1 22 3 -14 26482. 31426. 3406. o
9263 1 23 3 14 38271. 30510. 3498. o
9264 1 23 3 -14 37917. 37894. 1770. o
9265 1 24 3 14 6398. 6895. 3295. o
9266 1 24 3 -14 6335. 8299. 1706. o
9267 1 25 3 14 1824. 2075. 3234. <
9268 1 25 3 -14 1814. 3966. 1707. o
9269 2 -4 8 -14 36292. 43508. 5110. o
9269 1 26 3 14 36292. 43508. 5110. o
9270 2 -4 8 14 36453. 37345. 2743. o
9270 1 26 3 -14 36453. 37345. 2743. o
9271 1 27 3 14 3005. 976. 3112. <
9272 1 27 3 -14 2904. 6529. 1706. o
9273 1 28 3 14 7700. 8238. 3295. o
9274 1 28 3 -14 7676. 8726. 1768. o
9275 1 29 3 14 459. 2563. 3356. <
9276 1 29 3 -14 449. 6468. 1704. o
9277 2 26 -5 -14 10130. 11045. 4637. o
9277 1 -28 4 14 10130. 11045. 4637. o
9278 2 26 -5 14 10239. 15682. 2616. o
9278 1 -28 4 -14 10239. 15682. 2616. o
9279 2 24 -4 -14 1734. 3783. 4576. <
9279 1 -24 4 14 1734. 3783. 4576. <
9280 2 24 -4 14 1707. 3966. 2379. <
9280 1 -24 4 -14 1707. 3966. 2379. <
9281 2 22 -3 -14 28980. 28436. 4760. o
9281 1 -20 4 14 28980. 28436. 4760. o
9282 2 22 -3 14 29124. 26727. 3240. o
9282 1 -20 4 -14 29124. 26727. 3240. o
9283 2 20 -2 -14 14405. 16964. 5307. o
9283 1 -16 4 14 14405. 16964. 5307. o
9284 2 20 -2 14 14798. 22517. 3466. o
9284 1 -16 4 -14 14798. 22517. 3466. o
9285 2 18 -1 -14 11803. 14035. 3293. o
9285 1 -12 4 14 11803. 14035. 3293. o
9286 2 18 -1 14 11832. 19527. 3468. o
9286 1 -12 4 -14 11832. 19527. 3468. o
9287 2 16 0 -14 88510. 104223. 4298. o
9287 1 -8 4 14 88510. 104223. 4298. o
9288 2 16 0 14 87001. 102759. 3799. o
9288 1 -8 4 -14 87001. 102759. 3799. o
9289 2 14 1 -14 63921. 66390. 4200. o
9289 1 -4 4 14 63921. 66390. 4200. o
9290 2 14 1 14 64861. 71089. 4122. o
9290 1 -4 4 -14 64861. 71089. 4122. o
9291 2 12 2 -14 101270. 93240. 4742. o
9291 1 0 4 14 101270. 93240. 4742. o
9292 2 12 2 14 102071. 108495. 4906. o
9292 1 0 4 -14 102071. 108495. 4906. o
9293 1 1 4 14 33901. 32036. 3056. o
9294 1 1 4 -14 34019. 33561. 3357. o
9295 1 2 4 14 9923. 5370. 3115. <
9296 1 2 4 -14 9860. 7017. 3114. o
9297 1 3 4 14 69420. 74079. 3021. o
9298 1 3 4 -14 69622. 67855. 3183. o
9299 2 10 3 -14 79199. 95070. 4431. o
9299 1 4 4 14 79199. 95070. 4431. o
9300 2 10 3 14 80575. 78961. 5132. o
9300 1 4 4 -14 80575. 78961. 5132. o
9301 1 5 4 14 83868. 90799. 2935. o
9302 1 5 4 -14 84514. 78961. 3392. o
9303 1 6 4 14 10330. 13608. 2803. o
9304 1 6 4 -14 10445. 10190. 2990. o
9305 1 7 4 14 14824. 14157. 2808. o
9306 1 7 4 -14 14619. 16598. 2987. o
9307 2 8 4 -14 79228. 91470. 4204. o
9307 1 8 4 14 79228. 91470. 4204. o
9308 2 8 4 14 78353. 86283. 4291. o
9308 1 8 4 -14 78353. 86283. 4291. o
9309 1 9 4 14 48622. 56444. 2705. o
9310 1 9 4 -14 48596. 48756. 2867. o
9311 1 10 4 14 12848. 14584. 2621. o
9312 1 10 4 -14 12791. 10862. 2748. o
9313 1 11 4 14 5868. 7017. 2562. o
9314 1 11 4 -14 6063. 4760. 2686. <
9315 2 6 5 -14 13838. 11838. 3846. o
9315 1 12 4 14 13838. 11838. 3846. o
9316 2 6 5 14 13893. 12753. 4150. o
9316 1 12 4 -14 13893. 12753. 4150. o
9317 1 13 4 14 6943. 6529. 2563. o
9318 1 13 4 -14 6728. 7139. 2624. o
9319 1 14 4 14 7965. 7750. 2746. o
9320 1 14 4 -14 8031. 8909. 2623. o
9321 1 15 4 14 7097. 10190. 3354. o
9322 1 15 4 -14 7229. 8299. 2440. o
9323 2 4 6 -14 16596. 17391. 3965. o
9323 1 16 4 14 16596. 17391. 3965. o
9324 2 4 6 14 16991. 22334. 3592. o
9324 1 16 4 -14 16991. 22334. 3592. o
9325 1 17 4 14 6061. 7933. 4942. <
9326 1 17 4 -14 6098. 8848. 2438. o
9327 1 18 4 14 19501. 17574. 2810. o
9328 1 18 4 -14 19671. 21052. 2193. o
9329 1 19 4 14 13627. 14462. 2684. o
9330 1 19 4 -14 13871. 14950. 2012. o
9331 2 2 7 -14 24621. 17269. 5255. o
9331 1 20 4 14 24621. 17269. 5255. o
9332 2 2 7 14 24691. 23310. 2749. o
9332 1 20 4 -14 24691. 23310. 2749. o
9333 1 21 4 14 52086. 42959. 3752. o
9334 1 21 4 -14 52337. 56383. 2170. o
9335 1 22 4 14 15426. 16292. 3660. o
9336 1 22 4 -14 15472. 15560. 1830. o
9337 1 23 4 14 16316. 13364. 3725. o
9338 1 23 4 -14 16327. 18062. 1887. o
9339 2 0 8 -14 1612. 5675. 5613. <
9339 1 24 4 14 1612. 5675. 5613. <
9340 2 0 8 14 1576. 4210. 2562. <
9340 1 24 4 -14 1576. 4210. 2562. <
9341 1 25 4 14 3925. 9580. 3475. o
9342 1 25 4 -14 4021. 10190. 1762. o
9343 1 26 4 14 4689. 8116. 3537. o
9344 1 26 4 -14 4693. 8787. 1826. o
9345 1 27 4 14 5787. 1037. 3418. <
9346 1 27 4 -14 5668. 8726. 1888. o
9347 2 -2 9 -14 11665. 14218. 5185. o
9347 1 28 4 14 11665. 14218. 5185. o
9348 2 -2 9 14 11766. 10434. 2808. o
9348 1 28 4 -14 11766. 10434. 2808. o
9349 2 28 -4 -14 11590. 10679. 4760. o
9349 1 -26 5 14 11590. 10679. 4760. o
9350 2 28 -4 14 11581. 9946. 2565. o
9350 1 -26 5 -14 11581. 9946. 2565. o
9351 2 26 -3 -14 61044. 39358. 6146. o
9351 1 -22 5 14 61044. 39358. 6146. o
9352 2 26 -3 14 60893. 57604. 2765. o
9352 1 -22 5 -14 60893. 57604. 2765. o
9353 2 24 -2 -14 22176. 26422. 3225. o
9353 1 -18 5 14 22176. 26422. 3225. o
9354 2 24 -2 14 22210. 19771. 3421. o
9354 1 -18 5 -14 22210. 19771. 3421. o
9355 2 22 -1 -14 77807. 80913. 3643. o
9355 1 -14 5 14 77807. 80913. 3643. o
9356 2 22 -1 14 78366. 75483. 3920. o
9356 1 -14 5 -14 78366. 75483. 3920. o
9357 2 20 0 -14 40529. 52539. 3619. o
9357 1 -10 5 14 40529. 52539. 3619. o
9358 2 20 0 14 40851. 47047. 3518. o
9358 1 -10 5 -14 40851. 47047. 3518. o
9359 2 18 1 -14 14271. 18428. 4328. o
9359 1 -6 5 14 14271. 18428. 4328. o
9360 2 18 1 14 14049. 16354. 3842. o
9360 1 -6 5 -14 14049. 16354. 3842. o
9361 2 16 2 -14 60154. 75055. 4392. o
9361 1 -2 5 14 60154. 75055. 4392. o
9362 2 16 2 14 60337. 66268. 4125. o
9362 1 -2 5 -14 60337. 66268. 4125. o
9363 1 0 5 14 11824. 9397. 4212. o
9364 1 0 5 -14 11775. 14157. 4575. o
9365 1 1 5 14 12707. 10984. 3114. o
9366 1 1 5 -14 12447. 11655. 3052. o
9367 2 14 3 -14 53110. 45948. 4475. o
9367 1 2 5 14 53110. 45948. 4475. o
9368 2 14 3 14 53431. 59251. 4618. o
9368 1 2 5 -14 53431. 59251. 4618. o
9369 1 3 5 14 1045. 3295. 2867. <
9370 1 3 5 -14 1083. 3966. 2989. <
9371 1 4 5 14 2719. 183. 2807. <
9372 1 4 5 -14 2743. 4088. 3112. <
9373 1 5 5 14 25584. 27947. 2984. o
9374 1 5 5 -14 25453. 20137. 3122. o
9375 2 12 4 -14 15824. 16781. 4209. o
9375 1 6 5 14 15824. 16781. 4209. o
9376 2 12 4 14 15573. 7750. 4825. <
9376 1 6 5 -14 15573. 7750. 4825. <
9377 1 7 5 14 57797. 59373. 3104. o
9378 1 7 5 -14 58288. 59251. 3168. o
9379 1 8 5 14 38984. 40335. 2802. o
9380 1 8 5 -14 39125. 41494. 3104. o
9381 1 9 5 14 50185. 56261. 2899. o
9382 1 9 5 -14 49850. 52844. 3221. o
9383 2 10 5 -14 40517. 42959. 4265. o
9383 1 10 5 14 40517. 42959. 4265. o
9384 2 10 5 14 40867. 44728. 4934. o
9384 1 10 5 -14 40867. 44728. 4934. o
9385 1 11 5 14 8227. 7567. 2563. o
9386 1 11 5 -14 8045. 11106. 2865. o
9387 1 12 5 14 20768. 19710. 2565. o
9388 1 12 5 -14 20508. 18306. 2933. o
9389 1 13 5 14 14348. 14645. 2929. o
9390 1 13 5 -14 14733. 18489. 2740. o
9391 2 8 6 -14 44925. 46864. 4816. o
9391 1 14 5 14 44925. 46864. 4816. o
9392 2 8 6 14 45115. 39663. 4529. o
9392 1 14 5 -14 45115. 39663. 4529. o
9393 1 15 5 14 47368. 42592. 3191. o
9394 1 15 5 -14 47132. 46437. 2566. o
9395 1 16 5 14 35532. 35941. 3111. o
9396 1 16 5 -14 35414. 35270. 2319. o
9397 1 17 5 14 11203. 13608. 2865. o
9398 1 17 5 -14 11240. 10496. 2320. o
9399 2 6 7 -14 18540. 12082. 6228. <
9399 1 18 5 14 18540. 12082. 6228. <
9400 2 6 7 14 18590. 20015. 3781. o
9400 1 18 5 -14 18590. 20015. 3781. o
9401 1 19 5 14 7852. 8665. 3783. o
9402 1 19 5 -14 7740. 10190. 2316. o
9403 1 20 5 14 10536. 13119. 3720. o
9404 1 20 5 -14 10398. 12326. 2194. o
9405 1 21 5 14 18871. 18245. 3845. o
9406 1 21 5 -14 18768. 16598. 2080. o
9407 2 4 8 -14 56425. 48633. 5694. o
9407 1 22 5 14 56425. 48633. 5694. o
9408 2 4 8 14 56314. 46742. 3273. o
9408 1 22 5 -14 56314. 46742. 3273. o
9409 1 23 5 14 5862. 9580. 3598. o
9410 1 23 5 -14 5886. 9641. 1948. o
9411 1 24 5 14 9459. 6956. 3724. <
9412 1 24 5 -14 9536. 11228. 1950. o
9413 1 25 5 14 3153. 6712. 3538. <
9414 1 25 5 -14 3135. 7506. 2132. o
9415 2 2 9 -14 13498. 16170. 5551. o
9415 1 26 5 14 13498. 16170. 5551. o
9416 2 2 9 14 13502. 15255. 4331. o
9416 1 26 5 -14 13502. 15255. 4331. o
9417 2 28 -2 -14 22198. 14096. 5559. o
9417 1 -20 6 14 22198. 14096. 5559. o
9418 2 28 -2 14 22008. 19282. 2629. o
9418 1 -20 6 -14 22008. 19282. 2629. o
9419 2 26 -1 -14 5370. 9641. 3537. o
9419 1 -16 6 14 5370. 9641. 3537. o
9420 2 26 -1 14 5270. 4638. 3539. <
9420 1 -16 6 -14 5270. 4638. 3539. <
9421 2 24 0 -14 9042. 10496. 5430. <
9421 1 -12 6 14 9042. 10496. 5430. <
9422 2 24 0 14 9070. 11045. 3416. o
9422 1 -12 6 -14 9070. 11045. 3416. o
9423 2 22 1 -14 44650. 42470. 3912. o
9423 1 -8 6 14 44650. 42470. 3912. o
9424 2 22 1 14 45198. 41799. 3672. o
9424 1 -8 6 -14 45198. 41799. 3672. o
9425 2 20 2 -14 11773. 16048. 4084. o
9425 1 -4 6 14 11773. 16048. 4084. o
9426 2 20 2 14 11622. 9092. 4151. o
9426 1 -4 6 -14 11622. 9092. 4151. o
9427 2 18 3 -14 20059. 25507. 6829. o
9427 1 0 6 14 20059. 25507. 6829. o
9428 2 18 3 14 20239. 22395. 4635. o
9428 1 0 6 -14 20239. 22395. 4635. o
9429 1 1 6 14 3462. 3295. 3478. <
9430 1 1 6 -14 3409. 5065. 2989. <
9431 1 2 6 14 4627. 5553. 2929. <
9432 1 2 6 -14 4773. 6773. 3050. o
9433 1 3 6 14 18483. 23676. 3102. o
9434 1 3 6 -14 18135. 17452. 3052. o
9435 2 16 4 -14 14628. 12753. 4151. o
9435 1 4 6 14 14628. 12753. 4151. o
9436 2 16 4 14 14362. 18611. 4633. o
9436 1 4 6 -14 14362. 18611. 4633. o
9437 1 5 6 14 6266. 6651. 2929. o
9438 1 5 6 -14 5974. 4821. 2991. <
9439 1 6 6 14 24633. 26727. 2985. o
9440 1 6 6 -14 24755. 21174. 3058. o
9441 1 7 6 14 21237. 20930. 2869. o
9442 1 7 6 -14 21620. 22334. 3172. o
9443 2 14 5 -14 18913. 17574. 4334. o
9443 1 8 6 14 18913. 17574. 4334. o
9444 2 14 5 14 19090. 24225. 5120. o
9444 1 8 6 -14 19090. 24225. 5120. o
9445 1 9 6 14 109549. 113437. 3074. o
9446 1 9 6 -14 110001. 98914. 3327. o
9447 1 10 6 14 29749. 30266. 2744. o
9448 1 10 6 -14 29963. 24652. 3246. o
9449 1 11 6 14 22635. 22090. 3174. o
9450 1 11 6 -14 22345. 18367. 3058. o
9451 2 12 6 -14 10945. 5736. 5860. <
9451 1 12 6 14 10945. 5736. 5860. <
9452 2 12 6 14 10962. 9092. 4700. <
9452 1 12 6 -14 10962. 9092. 4700. <
9453 1 13 6 14 5467. 4455. 3723. <
9454 1 13 6 -14 5367. 8055. 2622. o
9455 1 14 6 14 4319. 8238. 3598. o
9456 1 14 6 -14 4471. 5553. 2440. o
9457 1 15 6 14 7648. 7506. 3051. o
9458 1 15 6 -14 7739. 10434. 2866. o
9459 2 10 7 -14 3678. 671. 5858. <
9459 1 16 6 14 3678. 671. 5858. <
9460 2 10 7 14 3559. 6712. 4148. <
9460 1 16 6 -14 3559. 6712. 4148. <
9461 1 17 6 14 35130. 30388. 3307. o
9462 1 17 6 -14 35221. 31243. 2576. o
9463 1 18 6 14 17. 6102. 3843. <
9464 1 18 6 -14 22. 4577. 2317. <
9465 1 19 6 14 7497. 11106. 3903. o
9466 1 19 6 -14 7365. 12936. 2556. o
9467 2 8 8 -14 17040. 10557. 6106. <
9467 1 20 6 14 17040. 10557. 6106. <
9468 2 8 8 14 16981. 19222. 4086. o
9468 1 20 6 -14 16981. 19222. 4086. o
9469 1 21 6 14 6173. 11594. 3963. o
9470 1 21 6 -14 6065. 12082. 2251. o
9471 1 22 6 14 7741. 7139. 3540. o
9472 1 22 6 -14 7804. 11228. 2315. o
9473 1 23 6 14 1192. 2075. 3661. <
9474 1 23 6 -14 1231. 5980. 2133. o
9475 2 30 -1 -14 6098. 2563. 5798. <
9475 1 -18 7 14 6098. 2563. 5798. <
9476 2 30 -1 14 6123. 10984. 2803. o
9476 1 -18 7 -14 6123. 10984. 2803. o
9477 2 28 0 -14 33886. 30327. 4035. o
9477 1 -14 7 14 33886. 30327. 4035. o
9478 2 28 0 14 33728. 29900. 3853. o
9478 1 -14 7 -14 33728. 29900. 3853. o
9479 2 26 1 -14 16992. 14706. 4213. o
9479 1 -10 7 14 16992. 14706. 4213. o
9480 2 26 1 14 17090. 20686. 3595. o
9480 1 -10 7 -14 17090. 20686. 3595. o
9481 2 24 2 -14 4923. 7322. 4209. <
9481 1 -6 7 14 4923. 7322. 4209. <
9482 2 24 2 14 4919. 6956. 3782. <
9482 1 -6 7 -14 4919. 6956. 3782. <
9483 2 22 3 -14 10416. 11289. 4210. o
9483 1 -2 7 14 10416. 11289. 4210. o
9484 2 22 3 14 10534. 12387. 4026. o
9484 1 -2 7 -14 10534. 12387. 4026. o
9485 1 0 7 14 12247. 6163. 4153. <
9486 1 0 7 -14 12088. 10984. 4516. o
9487 1 1 7 14 20902. 14767. 2999. o
9488 1 1 7 -14 21306. 17269. 3118. o
9489 2 20 4 -14 10036. 5126. 4456. <
9489 1 2 7 14 10036. 5126. 4456. <
9490 2 20 4 14 10075. 11350. 4881. o
9490 1 2 7 -14 10075. 11350. 4881. o
9491 1 3 7 14 26423. 21601. 3426. o
9492 1 3 7 -14 26222. 23310. 3118. o
9493 1 4 7 14 47152. 42226. 3434. o
9494 1 4 7 -14 46731. 37406. 3326. o
9495 1 5 7 14 41700. 36490. 3311. o
9496 1 5 7 -14 41794. 32707. 3382. o
9497 2 18 5 -14 4993. 5614. 4149. <
9497 1 6 7 14 4993. 5614. 4149. <
9498 2 18 5 14 4996. 10068. 5062. <
9498 1 6 7 -14 4996. 10068. 5062. <
9499 1 7 7 14 3181. 5980. 2928. o
9500 1 7 7 -14 3185. 4088. 3173. <
9501 1 8 7 14 5931. 9641. 3476. o
9502 1 8 7 -14 5732. 6468. 3112. o
9503 1 9 7 14 17174. 14950. 3359. o
9504 1 9 7 -14 17311. 13424. 3422. o
9505 2 16 6 -14 12763. 14340. 6711. o
9505 1 10 7 14 12763. 14340. 6711. o
9506 2 16 6 14 12886. 15133. 4269. o
9506 1 10 7 -14 12886. 15133. 4269. o
9507 1 11 7 14 4933. 8299. 3354. o
9508 1 11 7 -14 4969. 7445. 2866. o
9509 1 12 7 14 9803. 10923. 3111. o
9510 1 12 7 -14 9916. 12021. 2866. o
9511 1 13 7 14 4078. 11045. 3046. o
9512 1 13 7 -14 4068. 6895. 2927. o
9513 2 14 7 -14 34180. 24103. 6297. o
9513 1 14 7 14 34180. 24103. 6297. o
9514 2 14 7 14 34124. 29900. 6108. o
9514 1 14 7 -14 34124. 29900. 6108. o
9515 1 15 7 14 42. 2807. 3417. <
9516 1 15 7 -14 50. 6224. 3354. <
9517 1 16 7 14 4842. 8848. 4209. o
9518 1 16 7 -14 4766. 7445. 2927. o
9519 1 17 7 14 4841. 9275. 4025. o
9520 1 17 7 -14 4785. 6285. 3233. <
9521 2 12 8 -14 8415. 7261. 6713. <
9521 1 18 7 14 8415. 7261. 6713. <
9522 2 12 8 14 8414. 9824. 5247. <
9522 1 18 7 -14 8414. 9824. 5247. <
9523 1 19 7 14 11436. 6346. 4457. <
9524 1 19 7 -14 11607. 11106. 2502. o
9525 1 20 7 14 5469. 7567. 4332. <
9526 1 20 7 -14 5452. 8482. 2316. o
9527 2 30 1 -14 12400. 7750. 4030. <
9527 1 -12 8 14 12400. 7750. 4030. <
9528 2 30 1 14 12504. 15377. 3841. o
9528 1 -12 8 -14 12504. 15377. 3841. o
9529 2 28 2 -14 12650. 7689. 4213. <
9529 1 -8 8 14 12650. 7689. 4213. <
9530 2 28 2 14 12430. 8055. 3908. o
9530 1 -8 8 -14 12430. 8055. 3908. o
9531 2 26 3 -14 19407. 19282. 4760. o
9531 1 -4 8 14 19407. 19282. 4760. o
9532 2 26 3 14 19342. 18672. 4516. o
9532 1 -4 8 -14 19342. 18672. 4516. o
9533 2 24 4 -14 1114. 4943. 4515. <
9533 1 0 8 14 1114. 4943. 4515. <
9534 2 24 4 14 1127. 4393. 4942. <
9534 1 0 8 -14 1127. 4393. 4942. <
9535 1 1 8 14 10989. 13424. 3354. o
9536 1 1 8 -14 10770. 11106. 3539. o
9537 1 2 8 14 4804. 7994. 3538. o
9538 1 2 8 -14 4953. 7567. 3721. o
9539 1 3 8 14 18004. 13364. 3666. o
9540 1 3 8 -14 18369. 11350. 3912. o
9541 2 22 5 -14 23664. 21418. 6043. o
9541 1 4 8 14 23664. 21418. 6043. o
9542 2 22 5 14 23657. 10923. 6659. <
9542 1 4 8 -14 23657. 10923. 6659. <
9543 1 5 8 14 21022. 15621. 3851. o
9544 1 5 8 -14 21312. 17940. 4458. o
9545 1 6 8 14 4609. 1831. 3662. <
9546 1 6 8 -14 4584. 10984. 4451. o
9547 1 7 8 14 12082. 11594. 3540. o
9548 1 7 8 -14 11867. 10862. 3540. o
9549 2 20 6 -14 9553. 9580. 5614. <
9549 1 8 8 14 9553. 9580. 5614. <
9550 1 9 8 14 18833. 11350. 3425. o
9551 1 9 8 -14 18498. 19282. 3904. o
9552 1 10 8 14 3971. 6163. 3172. <
9553 1 10 8 -14 4076. 9885. 3352. o
9554 1 11 8 14 5801. 7689. 3477. o
9555 1 11 8 -14 5861. 5858. 3112. <
9556 2 18 7 -14 13340. 9946. 6714. <
9556 1 12 8 14 13340. 9946. 6714. <
9557 2 18 7 14 13435. 7017. 6532. <
9557 1 12 8 -14 13435. 7017. 6532. <
9558 1 13 8 14 6272. 10374. 4574. o
9559 1 13 8 -14 6129. 11106. 3719. o
9560 1 14 8 14 2057. 5553. 4698. <
9561 1 14 8 -14 2136. 7017. 3598. <
9562 1 15 8 14 6434. 7322. 4393. <
9563 1 15 8 -14 6276. 9885. 2498. o
9564 2 28 4 -14 18574. 15255. 6348. o
9564 1 -2 9 14 18574. 15255. 6348. o
9565 2 28 4 14 18600. 16414. 6470. o
9565 1 -2 9 -14 18600. 16414. 6470. o
9566 1 0 9 -14 10892. 7811. 6225. <
9567 1 1 9 14 3597. 9336. 5978. <
9568 1 1 9 -14 3640. 9458. 5184. <
9569 2 26 5 -14 18946. 14706. 6227. o
9569 1 2 9 14 18946. 14706. 6227. o
9570 2 26 5 14 18993. 13547. 7509. <
9570 1 2 9 -14 18993. 13547. 7509. <
9571 1 3 9 14 4180. 6956. 4881. <
9572 1 3 9 -14 4165. 5675. 6895. <
9573 1 4 9 14 1315. 7017. 4331. <
9574 1 4 9 -14 1328. 5065. 6834. <
9575 1 2 0 15 58470. 63706. 4006. o
9576 1 2 0 -15 58856. 55834. 3917. o
9577 2 -2 1 -15 47939. 48084. 3478. o
9577 1 4 0 15 47939. 48084. 3478. o
9578 2 -2 1 15 48978. 45704. 3612. o
9578 1 4 0 -15 48978. 45704. 3612. o
9579 1 6 0 15 140934. 131133. 3935. o
9580 1 6 0 -15 140427. 114231. 4235. o
9581 2 -4 2 -15 117940. 126008. 3588. o
9581 1 8 0 15 117940. 126008. 3588. o
9582 2 -4 2 15 118212. 122041. 3689. o
9582 1 8 0 -15 118212. 122041. 3689. o
9583 1 10 0 15 15436. 18367. 3108. o
9584 1 10 0 -15 15663. 14828. 3113. o
9585 2 -6 3 -15 16792. 20808. 3044. o
9585 1 12 0 15 16792. 20808. 3044. o
9586 2 -6 3 15 16931. 20442. 3167. o
9586 1 12 0 -15 16931. 20442. 3167. o
9587 1 14 0 15 262. 1770. 3051. <
9588 1 14 0 -15 271. 3173. 2928. <
9589 2 -8 4 -15 80168. 87382. 3307. o
9589 1 16 0 15 80168. 87382. 3307. o
9590 2 -8 4 15 78912. 89151. 3472. o
9590 1 16 0 -15 78912. 89151. 3472. o
9591 1 18 0 15 69266. 67794. 3242. o
9592 1 18 0 -15 69260. 71760. 3281. o
9593 2 -10 5 -15 89505. 86954. 3131. o
9593 1 20 0 15 89505. 86954. 3131. o
9594 2 -10 5 15 90290. 89761. 3238. o
9594 1 20 0 -15 90290. 89761. 3238. o
9595 1 22 0 15 14380. 16109. 4087. o
9596 1 22 0 -15 14570. 14157. 2746. o
9597 2 -12 6 -15 3010. 976. 3784. <
9597 1 24 0 15 3010. 976. 3784. <
9598 2 -12 6 15 2843. 3722. 2318. <
9598 1 24 0 -15 2843. 3722. 2318. <
9599 1 26 0 15 8952. 13302. 3780. o
9600 1 26 0 -15 8781. 6590. 2443. o
9601 2 -14 7 -15 9827. 6773. 4029. <
9601 1 28 0 15 9827. 6773. 4029. <
9602 2 -14 7 15 9948. 11533. 2561. o
9602 1 28 0 -15 9948. 11533. 2561. o
9603 1 30 0 15 24920. 15255. 4465. o
9604 1 30 0 -15 25053. 23127. 2568. o
9605 2 18 -7 -15 2210. 5370. 4210. <
9605 1 -30 1 15 2210. 5370. 4210. <
9606 2 18 -7 15 2148. 7384. 2376. o
9606 1 -30 1 -15 2148. 7384. 2376. o
9607 2 16 -6 -15 23652. 21052. 4214. o
9607 1 -26 1 15 23652. 21052. 4214. o
9608 2 16 -6 15 23612. 25324. 2436. o
9608 1 -26 1 -15 23612. 25324. 2436. o
9609 2 14 -5 -15 42984. 44057. 4269. o
9609 1 -22 1 15 42984. 44057. 4269. o
9610 2 14 -5 15 43355. 42898. 3114. o
9610 1 -22 1 -15 43355. 42898. 3114. o
9611 2 12 -4 -15 3854. 1892. 2746. <
9611 1 -18 1 15 3854. 1892. 2746. <
9612 2 12 -4 15 3941. 183. 2868. <
9612 1 -18 1 -15 3941. 183. 2868. <
9613 2 10 -3 -15 77220. 83537. 3253. o
9613 1 -14 1 15 77220. 83537. 3253. o
9614 2 10 -3 15 75880. 82866. 3497. o
9614 1 -14 1 -15 75880. 82866. 3497. o
9615 2 8 -2 -15 182703. 197585. 3576. o
9615 1 -10 1 15 182703. 197585. 3576. o
9616 2 8 -2 15 183314. 199782. 3616. o
9616 1 -10 1 -15 183314. 199782. 3616. o
9617 2 6 -1 -15 5662. 4332. 3235. <
9617 1 -6 1 15 5662. 4332. 3235. <
9618 2 6 -1 15 5698. 7689. 3355. o
9618 1 -6 1 -15 5698. 7689. 3355. o
9619 2 4 0 -15 101220. 104894. 3818. o
9619 1 -2 1 15 101220. 104894. 3818. o
9620 2 4 0 15 101371. 106481. 3869. o
9620 1 -2 1 -15 101371. 106481. 3869. o
9621 1 1 1 15 1117. 4149. 2440. <
9622 1 1 1 -15 1160. 2563. 2685. <
9623 2 2 1 -15 115587. 131805. 3826. o
9623 1 2 1 15 115587. 131805. 3826. o
9624 2 2 1 15 115895. 130767. 3964. o
9624 1 2 1 -15 115895. 130767. 3964. o
9625 1 3 1 15 113436. 117587. 2761. o
9626 1 3 1 -15 113857. 111119. 2836. o
9627 1 4 1 15 6283. 3722. 2442. <
9628 1 4 1 -15 6176. -244. 2503. <
9629 1 5 1 15 10966. 10129. 2503. o
9630 1 5 1 -15 11086. 11533. 2501. o
9631 1 6 1 15 4654. 4149. 3417. <
9632 1 6 1 -15 4699. 8238. 3476. o
9633 1 7 1 15 32100. 31060. 2444. o
9634 1 7 1 -15 32162. 28802. 2513. o
9635 1 8 1 15 26483. 28436. 2374. o
9636 1 8 1 -15 26148. 23493. 2509. o
9637 1 9 1 15 58360. 60410. 2366. o
9638 1 9 1 -15 58096. 60594. 2424. o
9639 2 -2 3 -15 211271. 223641. 3907. o
9639 1 10 1 15 211271. 223641. 3907. o
9640 2 -2 3 15 212221. 216684. 4149. o
9640 1 10 1 -15 212221. 216684. 4149. o
9641 1 11 1 15 31098. 37223. 2786. o
9642 1 11 1 -15 31156. 37711. 2477. o
9643 1 12 1 15 87. 427. 2624. <
9644 1 12 1 -15 79. 3722. 2379. <
9645 1 13 1 15 10237. 14035. 2252. o
9646 1 13 1 -15 10207. 12753. 2376. o
9647 2 -4 4 -15 70103. 74140. 3640. o
9647 1 14 1 15 70103. 74140. 3640. o
9648 2 -4 4 15 68877. 77862. 3550. o
9648 1 14 1 -15 68877. 77862. 3550. o
9649 1 15 1 15 21725. 24042. 2251. o
9650 1 15 1 -15 21671. 23493. 2375. o
9651 1 16 1 15 1954. 7322. 2193. o
9652 1 16 1 -15 1894. 3783. 2257. <
9653 1 17 1 15 15985. 16476. 2135. o
9654 1 17 1 -15 15908. 16720. 2256. o
9655 2 -6 5 -15 3615. 7933. 3110. o
9655 1 18 1 15 3615. 7933. 3110. o
9656 2 -6 5 15 3707. 9397. 3169. o
9656 1 18 1 -15 3707. 9397. 3169. o
9657 1 19 1 15 13535. 15987. 2070. o
9658 1 19 1 -15 13471. 15621. 2132. o
9659 1 20 1 15 2254. 4393. 2074. o
9660 1 20 1 -15 2185. 2624. 2075. <
9661 1 21 1 15 2759. 3539. 2013. <
9662 1 21 1 -15 2735. 1831. 2136. <
9663 2 -8 6 -15 38913. 35453. 4401. o
9663 1 22 1 15 38913. 35453. 4401. o
9664 2 -8 6 15 39198. 44301. 3216. o
9664 1 22 1 -15 39198. 44301. 3216. o
9665 1 23 1 15 10578. 14706. 2924. o
9666 1 23 1 -15 10558. 12326. 1950. o
9667 1 24 1 15 1324. -2258. 2868. <
9668 1 24 1 -15 1286. 1953. 1647. <
9669 1 25 1 15 2956. 5797. 2989. <
9670 1 25 1 -15 3044. 4699. 1646. o
9671 2 -10 7 -15 23697. 24713. 4026. o
9671 1 26 1 15 23697. 24713. 4026. o
9672 2 -10 7 15 23670. 22334. 2688. o
9672 1 26 1 -15 23670. 22334. 2688. o
9673 1 27 1 15 1422. 5614. 2805. <
9674 1 27 1 -15 1405. 6773. 1704. o
9675 1 28 1 15 1350. 6102. 2866. o
9676 1 28 1 -15 1348. 7078. 1704. o
9677 1 29 1 15 6403. 9092. 3049. o
9678 1 29 1 -15 6397. 8909. 1705. o
9679 2 -12 8 -15 2279. 11411. 4694. o
9679 1 30 1 15 2279. 11411. 4694. o
9680 2 -12 8 15 2235. 7261. 2560. o
9680 1 30 1 -15 2235. 7261. 2560. o
9681 2 20 -6 -15 5610. 6407. 4393. <
9681 1 -28 2 15 5610. 6407. 4393. <
9682 2 20 -6 15 5805. 6712. 2318. o
9682 1 -28 2 -15 5805. 6712. 2318. o
9683 2 18 -5 -15 8099. 4149. 4212. <
9683 1 -24 2 15 8099. 4149. 4212. <
9684 2 18 -5 15 8276. 7689. 2319. o
9684 1 -24 2 -15 8276. 7689. 2319. o
9685 2 16 -4 -15 7221. 7628. 2685. o
9685 1 -20 2 15 7221. 7628. 2685. o
9686 2 16 -4 15 6983. 4332. 2808. <
9686 1 -20 2 -15 6983. 4332. 2808. <
9687 2 14 -3 -15 13942. 14340. 2990. o
9687 1 -16 2 15 13942. 14340. 2990. o
9688 2 14 -3 15 14110. 16170. 3231. o
9688 1 -16 2 -15 14110. 16170. 3231. o
9689 2 12 -2 -15 7419. 9214. 3050. o
9689 1 -12 2 15 7419. 9214. 3050. o
9690 2 12 -2 15 7268. 11289. 3231. o
9690 1 -12 2 -15 7268. 11289. 3231. o
9691 2 10 -1 -15 106165. 121187. 3721. o
9691 1 -8 2 15 106165. 121187. 3721. o
9692 2 10 -1 15 106732. 111912. 3928. o
9692 1 -8 2 -15 106732. 111912. 3928. o
9693 2 8 0 -15 158858. 127716. 4360. o
9693 1 -4 2 15 158858. 127716. 4360. o
9694 2 8 0 15 157991. 140653. 4309. o
9694 1 -4 2 -15 157991. 140653. 4309. o
9695 1 1 2 15 1410. 5858. 2805. o
9696 1 1 2 -15 1448. 3844. 2745. <
9697 1 2 2 15 49. 5309. 2744. <
9698 1 2 2 -15 53. 2868. 2745. <
9699 1 3 2 15 890. 2136. 2807. <
9700 1 3 2 -15 813. 3234. 2867. <
9701 2 4 2 -15 169810. 186052. 4339. o
9701 1 4 2 15 169810. 186052. 4339. o
9702 2 4 2 15 169144. 177936. 4486. o
9702 1 4 2 -15 169144. 177936. 4486. o
9703 1 5 2 15 26203. 23737. 2691. o
9704 1 5 2 -15 26273. 26727. 2806. o
9705 1 6 2 15 112271. 106237. 2928. o
9706 1 6 2 -15 112472. 102637. 2904. o
9707 1 7 2 15 25284. 29412. 2612. o
9708 1 7 2 -15 25111. 21540. 2632. o
9709 2 2 3 -15 113823. 112644. 4219. o
9709 1 8 2 15 113823. 112644. 4219. o
9710 2 2 3 15 114736. 102637. 4112. o
9710 1 8 2 -15 114736. 102637. 4112. o
9711 1 9 2 15 5950. 6895. 2440. o
9712 1 9 2 -15 6053. 2197. 2564. <
9713 1 10 2 15 14464. 15133. 2440. o
9714 1 10 2 -15 14531. 13852. 2503. o
9715 1 11 2 15 14396. 15438. 2439. o
9716 1 11 2 -15 14208. 15438. 2500. o
9717 1 12 2 15 6142. 3966. 3296. <
9718 1 12 2 -15 5950. 11289. 3658. o
9719 1 13 2 15 3290. 10007. 2252. o
9720 1 13 2 -15 3388. 2075. 2441. <
9721 1 14 2 15 24051. 26361. 2312. o
9722 1 14 2 -15 24352. 26788. 3534. o
9723 1 15 2 15 19416. 18367. 2321. o
9724 1 15 2 -15 19581. 21174. 3659. o
9725 2 -2 5 -15 12470. 12204. 3356. o
9725 1 16 2 15 12470. 12204. 3356. o
9726 2 -2 5 15 12634. 14706. 3720. o
9726 1 16 2 -15 12634. 14706. 3720. o
9727 1 17 2 15 13719. 17452. 2373. o
9728 1 17 2 -15 13796. 15865. 2315. o
9729 1 18 2 15 39902. 38138. 2387. o
9730 1 18 2 -15 39998. 45216. 2416. o
9731 1 19 2 15 2174. -61. 2075. <
9732 1 19 2 -15 2321. -854. 2197. <
9733 2 -4 6 -15 6675. 9153. 3049. o
9733 1 20 2 15 6675. 9153. 3049. o
9734 2 -4 6 15 6386. 8299. 3294. o
9734 1 20 2 -15 6386. 8299. 3294. o
9735 1 21 2 15 23888. 19771. 2390. o
9736 1 21 2 -15 23780. 22578. 2261. o
9737 1 22 2 15 24417. 22883. 3176. o
9738 1 22 2 -15 24202. 26178. 1946. o
9739 1 23 2 15 790. 488. 2929. <
9740 1 23 2 -15 780. 2868. 1830. <
9741 2 -6 7 -15 8585. 8970. 4454. o
9741 1 24 2 15 8585. 8970. 4454. o
9742 2 -6 7 15 8766. 7872. 3357. o
9742 1 24 2 -15 8766. 7872. 3357. o
9743 1 25 2 15 6332. 7445. 3050. o
9744 1 25 2 -15 6341. 6712. 1952. o
9745 1 26 2 15 1432. 4393. 3111. <
9746 1 26 2 -15 1480. 5309. 1767. o
9747 1 27 2 15 253. 10679. 2983. o
9748 1 27 2 -15 252. 2441. 1708. <
9749 2 -8 8 -15 5566. -4271. 4759. <
9749 1 28 2 15 5566. -4271. 4759. <
9750 2 -8 8 15 5752. 9702. 2498. o
9750 1 28 2 -15 5752. 9702. 2498. o
9751 1 29 2 15 198. 2136. 3234. <
9752 1 29 2 -15 197. 6834. 1826. o
9753 1 30 2 15 13472. 7811. 3117. o
9754 1 30 2 -15 13422. 12936. 1771. o
9755 2 22 -5 -15 10118. 11106. 4454. o
9755 1 -26 3 15 10118. 11106. 4454. o
9756 2 22 -5 15 10010. 10434. 2379. o
9756 1 -26 3 -15 10010. 10434. 2379. o
9757 2 20 -4 -15 59947. 61326. 4938. o
9757 1 -22 3 15 59947. 61326. 4938. o
9758 2 20 -4 15 59790. 54980. 3317. o
9758 1 -22 3 -15 59790. 54980. 3317. o
9759 2 18 -3 -15 901. 1953. 3051. <
9759 1 -18 3 15 901. 1953. 3051. <
9760 2 18 -3 15 849. 3661. 3050. <
9760 1 -18 3 -15 849. 3661. 3050. <
9761 2 16 -2 -15 23196. 26727. 3288. o
9761 1 -14 3 15 23196. 26727. 3288. o
9762 2 16 -2 15 23080. 28436. 3345. o
9762 1 -14 3 -15 23080. 28436. 3345. o
9763 2 14 -1 -15 51564. 56810. 3702. o
9763 1 -10 3 15 51564. 56810. 3702. o
9764 2 14 -1 15 52491. 56566. 3584. o
9764 1 -10 3 -15 52491. 56566. 3584. o
9765 2 12 0 -15 23519. 31182. 3707. o
9765 1 -6 3 15 23519. 31182. 3707. o
9766 2 12 0 15 23492. 25629. 3657. o
9766 1 -6 3 -15 23492. 25629. 3657. o
9767 2 10 1 -15 240498. 238713. 4844. o
9767 1 -2 3 15 240498. 238713. 4844. o
9768 2 10 1 15 239489. 226509. 4807. o
9768 1 -2 3 -15 239489. 226509. 4807. o
9769 1 1 3 15 27988. 32036. 2856. o
9770 1 1 3 -15 27753. 26117. 3055. o
9771 2 8 2 -15 219633. 241092. 4470. o
9771 1 2 3 15 219633. 241092. 4470. o
9772 2 8 2 15 218632. 236150. 4975. o
9772 1 2 3 -15 218632. 236150. 4975. o
9773 1 3 3 15 25750. 26544. 2927. o
9774 1 3 3 -15 25372. 26483. 3048. o
9775 1 4 3 15 19658. 22578. 2740. o
9776 1 4 3 -15 19734. 15865. 3118. o
9777 1 5 3 15 1983. 3173. 2563. <
9778 1 5 3 -15 1951. 2319. 2746. <
9779 2 6 3 -15 25330. 27154. 4024. o
9779 1 6 3 15 25330. 27154. 4024. o
9780 2 6 3 15 25331. 26605. 3964. o
9780 1 6 3 -15 25331. 26605. 3964. o
9781 1 7 3 15 24042. 26422. 2618. o
9782 1 7 3 -15 23935. 23920. 2685. o
9783 1 8 3 15 5235. 5858. 2562. o
9784 1 8 3 -15 5217. 7994. 2683. o
9785 1 9 3 15 23396. 30083. 2728. o
9786 1 9 3 -15 23713. 23615. 2685. o
9787 2 4 4 -15 37989. 43874. 4072. o
9787 1 10 3 15 37989. 43874. 4072. o
9788 2 4 4 15 38630. 34050. 4342. o
9788 1 10 3 -15 38630. 34050. 4342. o
9789 1 11 3 15 11354. 10862. 2624. o
9790 1 11 3 -15 11220. 9336. 2626. o
9791 1 12 3 15 2248. 6346. 2561. o
9792 1 12 3 -15 2266. 2807. 2624. <
9793 1 13 3 15 6191. 10923. 2742. o
9794 1 13 3 -15 5960. 6224. 2868. o
9795 2 2 5 -15 24196. 33988. 4253. o
9795 1 14 3 15 24196. 33988. 4253. o
9796 2 2 5 15 24126. 22212. 5982. o
9796 1 14 3 -15 24126. 22212. 5982. o
9797 1 15 3 15 6732. 7139. 2624. o
9798 1 15 3 -15 6894. 4882. 2503. <
9799 1 16 3 15 766. 6041. 3293. <
9800 1 16 3 -15 792. 1831. 2380. <
9801 1 17 3 15 7071. 7445. 2746. o
9802 1 17 3 -15 7186. 10312. 2377. o
9803 1 18 3 15 753. -183. 3417. <
9804 1 18 3 -15 688. 4638. 3538. <
9805 1 19 3 15 3740. 3722. 2258. <
9806 1 19 3 -15 3799. 5431. 2318. o
9807 1 20 3 15 25076. 21967. 2631. o
9808 1 20 3 -15 25055. 26422. 2315. o
9809 1 21 3 15 43. 549. 3417. <
9810 1 21 3 -15 42. 3356. 2013. <
9811 2 -2 7 -15 61594. 68343. 5409. o
9811 1 22 3 15 61594. 68343. 5409. o
9812 2 -2 7 15 61531. 62912. 3472. o
9812 1 22 3 -15 61531. 62912. 3472. o
9813 1 23 3 15 10158. 16414. 3349. o
9814 1 23 3 -15 10217. 15499. 2188. o
9815 1 24 3 15 231. -305. 3295. <
9816 1 24 3 -15 232. 1037. 1831. <
9817 1 25 3 15 22949. 22212. 3357. o
9818 1 25 3 -15 22847. 22639. 1770. o
9819 2 -4 8 -15 9638. 21845. 4809. o
9819 1 26 3 15 9638. 21845. 4809. o
9820 2 -4 8 15 9546. 10129. 2684. o
9820 1 26 3 -15 9546. 10129. 2684. o
9821 1 27 3 15 8766. 10312. 3111. o
9822 1 27 3 -15 8765. 11289. 1643. o
9823 1 28 3 15 2250. 8482. 3231. o
9824 1 28 3 -15 2224. 5919. 1767. o
9825 1 29 3 15 2234. 6224. 3416. <
9826 1 29 3 -15 2232. 7994. 1703. o
9827 2 24 -4 -15 1630. 3844. 4454. <
9827 1 -24 4 15 1630. 3844. 4454. <
9828 2 24 -4 15 1614. 6895. 2438. o
9828 1 -24 4 -15 1614. 6895. 2438. o
9829 2 22 -3 -15 40389. 34599. 3191. o
9829 1 -20 4 15 40389. 34599. 3191. o
9830 2 22 -3 15 40698. 38382. 3302. o
9830 1 -20 4 -15 40698. 38382. 3302. o
9831 2 20 -2 -15 12183. 12448. 3295. o
9831 1 -16 4 15 12183. 12448. 3295. o
9832 2 20 -2 15 12058. 14035. 3354. o
9832 1 -16 4 -15 12058. 14035. 3354. o
9833 2 18 -1 -15 6237. 10374. 3536. o
9833 1 -12 4 15 6237. 10374. 3536. o
9834 2 18 -1 15 6249. 4882. 3479. <
9834 1 -12 4 -15 6249. 4882. 3479. <
9835 2 16 0 -15 26600. 31914. 3772. o
9835 1 -8 4 15 26600. 31914. 3772. o
9836 2 16 0 15 27009. 32768. 4016. o
9836 1 -8 4 -15 27009. 32768. 4016. o
9837 2 14 1 -15 18966. 12570. 3973. o
9837 1 -4 4 15 18966. 12570. 3973. o
9838 2 14 1 15 19366. 16476. 4092. o
9838 1 -4 4 -15 19366. 16476. 4092. o
9839 1 1 4 15 5813. 5492. 3051. <
9840 1 1 4 -15 5812. 5980. 2868. o
9841 1 2 4 15 39399. 40701. 2985. o
9842 1 2 4 -15 39410. 35941. 3306. o
9843 1 3 4 15 40302. 40701. 3050. o
9844 1 3 4 -15 40587. 38748. 3179. o
9845 2 10 3 -15 12505. 14706. 3842. o
9845 1 4 4 15 12505. 14706. 3842. o
9846 2 10 3 15 12505. 18123. 4449. o
9846 1 4 4 -15 12505. 18123. 4449. o
9847 1 5 4 15 75547. 79510. 3085. o
9848 1 5 4 -15 75632. 70479. 3386. o
9849 1 6 4 15 49189. 55773. 2835. o
9850 1 6 4 -15 49386. 49732. 3111. o
9851 1 7 4 15 39701. 44606. 2725. o
9852 1 7 4 -15 40144. 40090. 3051. o
9853 2 8 4 -15 12380. 20869. 3711. o
9853 1 8 4 15 12380. 20869. 3711. o
9854 2 8 4 15 12496. 18611. 4632. o
9854 1 8 4 -15 12496. 18611. 4632. o
9855 1 9 4 15 22853. 26117. 2738. o
9856 1 9 4 -15 22624. 25507. 2800. o
9857 1 10 4 15 6409. 4271. 2625. <
9858 1 10 4 -15 6265. 9214. 3293. o
9859 1 11 4 15 3412. 8848. 2498. o
9860 1 11 4 -15 3512. 3844. 3173. <
9861 2 6 5 -15 6637. 5248. 3662. <
9861 1 12 4 15 6637. 5248. 3662. <
9862 2 6 5 15 6667. 5614. 3906. <
9862 1 12 4 -15 6667. 5614. 3906. <
9863 1 13 4 15 2879. 3783. 2502. <
9864 1 13 4 -15 2801. 2502. 2624. <
9865 1 14 4 15 3716. 4027. 2502. <
9866 1 14 4 -15 3678. 6102. 2623. o
9867 1 15 4 15 4765. 6651. 2562. o
9868 1 15 4 -15 4756. -122. 2564. <
9869 2 4 6 -15 13022. 12387. 4089. o
9869 1 16 4 15 13022. 12387. 4089. o
9870 2 4 6 15 12825. 15804. 3780. o
9870 1 16 4 -15 12825. 15804. 3780. o
9871 1 17 4 15 12488. 15255. 2681. o
9872 1 17 4 -15 12313. 15621. 2497. o
9873 1 18 4 15 12238. 13730. 2744. o
9874 1 18 4 -15 12163. 14523. 2498. o
9875 1 19 4 15 26260. 33622. 2785. o
9876 1 19 4 -15 26378. 30327. 2121. o
9877 2 2 7 -15 36812. 27947. 5505. o
9877 1 20 4 15 36812. 27947. 5505. o
9878 2 2 7 15 37133. 38260. 3108. o
9878 1 20 4 -15 37133. 38260. 3108. o
9879 1 21 4 15 21678. 17086. 3728. o
9880 1 21 4 -15 21820. 22639. 2195. o
9881 1 22 4 15 4189. 4210. 3783. <
9882 1 22 4 -15 4275. 7322. 2194. o
9883 1 23 4 15 11194. 10252. 3723. o
9884 1 23 4 -15 11259. 11472. 1952. o
9885 1 24 4 15 1345. 9946. 5367. <
9886 1 24 4 -15 1325. 5431. 3172. <
9887 1 25 4 15 869. 9336. 3596. o
9888 1 25 4 -15 870. 6895. 1949. o
9889 1 26 4 15 10027. 9763. 3600. o
9890 1 26 4 -15 10007. 15865. 1880. o
9891 1 27 4 15 10645. 10679. 3539. o
9892 1 27 4 -15 10615. 10923. 1891. o
9893 2 26 -3 -15 9388. 13180. 5062. o
9893 1 -22 5 15 9388. 13180. 5062. o
9894 2 26 -3 15 9493. 10679. 2623. o
9894 1 -22 5 -15 9493. 10679. 2623. o
9895 2 24 -2 -15 2671. 8177. 3353. o
9895 1 -18 5 15 2671. 8177. 3353. o
9896 2 24 -2 15 2643. 6773. 3232. o
9896 1 -18 5 -15 2643. 6773. 3232. o
9897 2 22 -1 -15 36366. 40030. 3406. o
9897 1 -14 5 15 36366. 40030. 3406. o
9898 2 22 -1 15 36028. 38260. 3411. o
9898 1 -14 5 -15 36028. 38260. 3411. o
9899 2 20 0 -15 99983. 115756. 3721. o
9899 1 -10 5 15 99983. 115756. 3721. o
9900 2 20 0 15 99589. 111790. 3815. o
9900 1 -10 5 -15 99589. 111790. 3815. o
9901 2 18 1 -15 5143. 5370. 3722. <
9901 1 -6 5 15 5143. 5370. 3722. <
9902 2 18 1 15 5130. 2014. 3723. <
9902 1 -6 5 -15 5130. 2014. 3723. <
9903 2 16 2 -15 16280. 16414. 4271. o
9903 1 -2 5 15 16280. 16414. 4271. o
9904 2 16 2 15 16182. 25507. 4442. o
9904 1 -2 5 -15 16182. 25507. 4442. o
9905 1 1 5 15 24329. 23127. 2993. o
9906 1 1 5 -15 24221. 23371. 2992. o
9907 2 14 3 -15 18746. 14035. 4398. o
9907 1 2 5 15 18746. 14035. 4398. o
9908 2 14 3 15 18697. 20259. 4697. o
9908 1 2 5 -15 18697. 20259. 4697. o
9909 1 3 5 15 11226. 11899. 2806. o
9910 1 3 5 -15 11521. 14950. 2986. o
9911 1 4 5 15 3810. 3722. 2929. <
9912 1 4 5 -15 3866. 5919. 2989. <
9913 1 5 5 15 2579. 5858. 2928. <
9914 1 5 5 -15 2492. 4088. 2928. <
9915 2 12 4 -15 5781. 7567. 4332. <
9915 1 6 5 15 5781. 7567. 4332. <
9916 2 12 4 15 5781. 8116. 4515. <
9916 1 6 5 -15 5781. 8116. 4515. <
9917 1 7 5 15 2245. 5187. 2684. <
9918 1 7 5 -15 2275. 2258. 2868. <
9919 1 8 5 15 5940. 7689. 2806. o
9920 1 8 5 -15 5881. 9580. 3048. o
9921 1 9 5 15 6732. 9763. 2621. o
9922 1 9 5 -15 6435. 9946. 2804. o
9923 2 10 5 -15 102698. 97999. 4543. o
9923 1 10 5 15 102698. 97999. 4543. o
9924 2 10 5 15 102512. 98304. 4965. o
9924 1 10 5 -15 102512. 98304. 4965. o
9925 1 11 5 15 19878. 24408. 2858. o
9926 1 11 5 -15 20006. 22822. 2801. o
9927 1 12 5 15 9515. 11472. 2683. o
9928 1 12 5 -15 9544. 12936. 2925. o
9929 1 13 5 15 53950. 60349. 2648. o
9930 1 13 5 -15 53970. 52966. 2751. o
9931 2 8 6 -15 30388. 23920. 3734. o
9931 1 14 5 15 30388. 23920. 3734. o
9932 2 8 6 15 30088. 29168. 4456. o
9932 1 14 5 -15 30088. 29168. 4456. o
9933 1 15 5 15 8377. 7750. 3112. o
9934 1 15 5 -15 8517. 9214. 2562. o
9935 1 16 5 15 750. 3112. 4881. <
9936 1 16 5 -15 748. 2441. 2502. <
9937 1 17 5 15 2860. 183. 3295. <
9938 1 17 5 -15 2764. 5248. 2379. o
9939 2 6 7 15 1644. 4577. 3599. <
9939 1 18 5 -15 1644. 4577. 3599. <
9940 1 19 5 15 387. 1403. 5126. <
9941 1 19 5 -15 399. 2075. 2502. <
9942 1 20 5 15 11191. 10312. 3906. o
9943 1 20 5 -15 11110. 9275. 2626. o
9944 1 21 5 15 2394. 4088. 4027. <
9945 1 21 5 -15 2362. 6346. 2255. o
9946 2 4 8 -15 8763. 16232. 6342. o
9946 1 22 5 15 8763. 16232. 6342. o
9947 2 4 8 15 8847. 7689. 3906. <
9947 1 22 5 -15 8847. 7689. 3906. <
9948 1 23 5 15 4946. 5736. 3905. <
9949 1 23 5 -15 4911. 7445. 2317. o
9950 1 24 5 15 1344. 12082. 3716. o
9951 1 24 5 -15 1343. 5614. 2133. o
9952 1 25 5 15 1932. 732. 3844. <
9953 1 25 5 -15 1839. 6468. 2194. o
9954 2 28 -2 -15 8438. 8421. 4943. <
9954 1 -20 6 15 8438. 8421. 4943. <
9955 2 28 -2 15 8343. 9031. 2745. o
9955 1 -20 6 -15 8343. 9031. 2745. o
9956 2 26 -1 -15 8009. 8421. 3661. o
9956 1 -16 6 15 8009. 8421. 3661. o
9957 2 26 -1 15 8066. 11106. 3537. o
9957 1 -16 6 -15 8066. 11106. 3537. o
9958 2 24 0 -15 6030. 9031. 3537. o
9958 1 -12 6 15 6030. 9031. 3537. o
9959 2 24 0 15 6131. 6407. 5187. <
9959 1 -12 6 -15 6131. 6407. 5187. <
9960 2 22 1 -15 17013. 17025. 3478. o
9960 1 -8 6 15 17013. 17025. 3478. o
9961 2 22 1 15 17078. 13547. 3360. o
9961 1 -8 6 -15 17078. 13547. 3360. o
9962 2 20 2 -15 9372. 14584. 6099. o
9962 1 -4 6 15 9372. 14584. 6099. o
9963 2 20 2 15 9485. 14828. 3962. o
9963 1 -4 6 -15 9485. 14828. 3962. o
9964 1 1 6 15 13390. 11960. 2931. o
9965 1 1 6 -15 13507. 14157. 2867. o
9966 1 2 6 15 398. 2929. 2867. <
9967 1 2 6 -15 416. 6590. 3049. o
9968 1 3 6 15 5236. 5736. 3051. <
9969 1 3 6 -15 5097. 5919. 2868. o
9970 2 16 4 -15 10751. 8848. 3846. o
9970 1 4 6 15 10751. 8848. 3846. o
9971 2 16 4 15 10844. 8665. 4578. <
9971 1 4 6 -15 10844. 8665. 4578. <
9972 1 5 6 15 48838. 44545. 3615. o
9973 1 5 6 -15 48930. 42592. 3076. o
9974 1 6 6 15 7178. 5858. 2808. o
9975 1 6 6 -15 7101. 5370. 3052. <
9976 1 7 6 15 82532. 82927. 3048. o
9977 1 7 6 -15 82451. 66024. 3389. o
9978 2 14 5 -15 15102. 14096. 3845. o
9978 1 8 6 15 15102. 14096. 3845. o
9979 2 14 5 15 15291. 6956. 5008. <
9979 1 8 6 -15 15291. 6956. 5008. <
9980 1 9 6 15 16069. 16232. 2746. o
9981 1 9 6 -15 16410. 13791. 2993. o
9982 1 10 6 15 4376. 5736. 3111. <
9983 1 10 6 -15 4279. 3661. 2990. <
9984 1 11 6 15 1411. 427. 3234. <
9985 1 11 6 -15 1383. 4577. 3538. <
9986 2 12 6 -15 6920. 4943. 3723. <
9986 1 12 6 15 6920. 4943. 3723. <
9987 2 12 6 15 6975. 6834. 4516. <
9987 1 12 6 -15 6975. 6834. 4516. <
9988 1 13 6 15 478. 6346. 3537. <
9989 1 13 6 -15 491. 3905. 2928. <
9990 1 14 6 15 20197. 18550. 4151. o
9991 1 14 6 -15 20287. 18794. 2566. o
9992 1 15 6 15 47721. 43447. 4040. o
9993 1 15 6 -15 47748. 43142. 2766. o
9994 2 10 7 15 3890. 6346. 3599. <
9994 1 16 6 -15 3890. 6346. 3599. <
9995 1 17 6 15 12176. 11472. 2869. o
9996 1 17 6 -15 12271. 13486. 2378. o
9997 1 18 6 15 5369. 8421. 2927. o
9998 1 18 6 -15 5324. 8238. 2316. o
9999 1 19 6 15 2494. 2990. 3844. <
10000 1 19 6 -15 2595. 8482. 2437. o
10001 2 8 8 -15 9106. 1831. 5371. <
10001 1 20 6 15 9106. 1831. 5371. <
10002 2 8 8 15 9053. 9031. 3417. o
10002 1 20 6 -15 9053. 9031. 3417. o
10003 1 21 6 15 13512. 12692. 3662. o
10004 1 21 6 -15 13399. 14279. 2195. o
10005 1 22 6 15 1400. 6468. 3598. <
10006 1 22 6 -15 1367. 6285. 2072. o
10007 2 30 -1 -15 6014. 10984. 6222. <
10007 1 -18 7 15 6014. 10984. 6222. <
10008 2 30 -1 15 6046. 8482. 3721. o
10008 1 -18 7 -15 6046. 8482. 3721. o
10009 2 28 0 -15 7080. 9885. 3720. o
10009 1 -14 7 15 7080. 9885. 3720. o
10010 2 28 0 15 7065. 5370. 5614. <
10010 1 -14 7 -15 7065. 5370. 5614. <
10011 2 26 1 -15 8266. 8299. 4149. <
10011 1 -10 7 15 8266. 8299. 4149. <
10012 2 26 1 15 8263. 13364. 3779. o
10012 1 -10 7 -15 8263. 13364. 3779. o
10013 2 24 2 -15 4922. 8360. 4209. <
10013 1 -6 7 15 4922. 8360. 4209. <
10014 2 24 2 15 4877. 5614. 4027. <
10014 1 -6 7 -15 4877. 5614. 4027. <
10015 2 22 3 -15 48288. 34782. 6916. o
10015 1 -2 7 15 48288. 34782. 6916. o
10016 2 22 3 15 48162. 44972. 4463. o
10016 1 -2 7 -15 48162. 44972. 4463. o
10017 1 1 7 15 30116. 27886. 3605. o
10018 1 1 7 -15 30049. 29595. 3296. o
10019 2 20 4 -15 43093. 43996. 4513. o
10019 1 2 7 15 43093. 43996. 4513. o
10020 2 20 4 15 42884. 37955. 4831. o
10020 1 2 7 -15 42884. 37955. 4831. o
10021 1 3 7 15 11401. 7872. 3481. o
10022 1 3 7 -15 11233. 14096. 3231. o
10023 1 4 7 15 3055. 2929. 2990. <
10024 1 4 7 -15 3097. 6712. 3110. o
10025 1 5 7 15 326. 1831. 2929. <
10026 1 5 7 -15 310. 4210. 3172. <
10027 2 18 5 -15 3406. 4577. 4149. <
10027 1 6 7 15 3406. 4577. 4149. <
10028 2 18 5 15 3397. 3173. 5004. <
10028 1 6 7 -15 3397. 3173. 5004. <
10029 1 7 7 15 157. 2807. 2868. <
10030 1 7 7 -15 141. 3905. 3172. <
10031 1 8 7 15 19745. 15499. 2936. o
10032 1 8 7 -15 19595. 19771. 3905. o
10033 1 9 7 15 2423. 5004. 3355. <
10034 1 9 7 -15 2538. 1281. 3783. <
10035 2 16 6 -15 4057. 2563. 5736. <
10035 1 10 7 15 4057. 2563. 5736. <
10036 2 16 6 15 4037. 7017. 5613. <
10036 1 10 7 -15 4037. 7017. 5613. <
10037 1 11 7 15 1640. 2685. 3600. <
10038 1 11 7 -15 1626. 4149. 2745. <
10039 1 12 7 15 932. 122. 3905. <
10040 1 12 7 -15 927. 8726. 3230. o
10041 1 13 7 15 3230. 3417. 3661. <
10042 1 13 7 -15 3093. 7322. 4148. <
10043 2 14 7 -15 6318. 6834. 5736. <
10043 1 14 7 15 6318. 6834. 5736. <
10044 2 14 7 15 6327. 10801. 4147. o
10044 1 14 7 -15 6327. 10801. 4147. o
10045 1 15 7 15 1990. 3905. 4088. <
10046 1 15 7 -15 2003. 3478. 3295. <
10047 1 16 7 15 1112. 6529. 3537. <
10048 1 16 7 -15 1099. 5431. 3172. <
10049 1 17 7 15 468. 7322. 4452. <
10050 1 17 7 -15 456. 4760. 2745. <
10051 2 12 8 -15 7144. 4027. 6042. <
10051 1 18 7 15 7144. 4027. 6042. <
10052 2 12 8 15 7177. 8970. 3660. o
10052 1 18 7 -15 7177. 8970. 3660. o
10053 2 30 1 -15 6389. 9092. 3843. o
10053 1 -12 8 15 6389. 9092. 3843. o
10054 2 30 1 15 6340. 6102. 3478. <
10054 1 -12 8 -15 6340. 6102. 3478. <
10055 2 28 2 -15 8158. 9092. 4210. o
10055 1 -8 8 15 8158. 9092. 4210. o
10056 2 28 2 15 8112. 7689. 3722. o
10056 1 -8 8 -15 8112. 7689. 3722. o
10057 2 26 3 -15 7192. 6041. 4577. <
10057 1 -4 8 15 7192. 6041. 4577. <
10058 2 26 3 15 7222. 12692. 4268. o
10058 1 -4 8 -15 7222. 12692. 4268. o
10059 1 1 8 15 4205. 4088. 3173. <
10060 1 1 8 -15 4125. 5553. 3356. <
10061 1 2 8 15 24158. 19954. 4216. o
10062 1 2 8 -15 24211. 24530. 4332. o
10063 1 3 8 15 22188. 16842. 4278. o
10064 1 3 8 -15 22372. 21845. 4272. o
10065 2 22 5 -15 7047. 9824. 8237. <
10065 1 4 8 15 7047. 9824. 8237. <
10066 2 22 5 15 7039. 11899. 8969. <
10066 1 4 8 -15 7039. 11899. 8969. <
10067 1 5 8 15 28076. 19160. 7939. o
10068 1 5 8 -15 28012. 25262. 4459. o
10069 1 6 8 15 676. 610. 6834. <
10070 1 6 8 -15 672. 4577. 3599. <
10071 1 7 8 15 13235. 10007. 4213. o
10072 1 7 8 -15 13484. 15621. 3476. o
10073 2 20 6 -15 8868. 7017. 6530. <
10073 1 8 8 15 8868. 7017. 6530. <
10074 2 20 6 15 8873. 10252. 7749. <
10074 1 8 8 -15 8873. 10252. 7749. <
10075 1 9 8 15 2978. 6285. 3416. <
10076 1 9 8 -15 2846. 6956. 3354. o
10077 1 10 8 15 2016. 8665. 3414. o
10078 1 10 8 -15 2030. 3356. 3478. <
10079 1 11 8 15 12661. 10923. 4151. o
10080 1 11 8 -15 12719. 14767. 3415. o
10081 2 18 7 15 7386. 11960. 7931. <
10081 1 12 8 -15 7386. 11960. 7931. <
10082 1 13 8 15 1507. 6407. 4148. <
10083 1 13 8 -15 1511. 6773. 3232. o
10084 2 0 0 -16 29276. 30754. 5307. o
10084 1 0 0 16 29276. 30754. 5307. o
10085 2 0 0 16 28943. 18916. 4955. o
10085 1 0 0 -16 28943. 18916. 4955. o
10086 1 2 0 16 646. 6773. 3476. <
10087 1 2 0 -16 722. -61. 3600. <
10088 2 -2 1 -16 185544. 187760. 4123. o
10088 1 4 0 16 185544. 187760. 4123. o
10089 2 -2 1 16 182879. 174824. 4300. o
10089 1 4 0 -16 182879. 174824. 4300. o
10090 1 6 0 16 64292. 49671. 3479. o
10091 1 6 0 -16 63354. 49122. 3596. o
10092 2 -4 2 -16 373808. 377107. 4442. o
10092 1 8 0 16 373808. 377107. 4442. o
10093 2 -4 2 16 371577. 355872. 4725. o
10093 1 8 0 -16 371577. 355872. 4725. o
10094 1 10 0 16 8566. 9275. 3173. o
10095 1 10 0 -16 8433. 8177. 3234. o
10096 2 -6 3 -16 71975. 84697. 3336. o
10096 1 12 0 16 71975. 84697. 3336. o
10097 2 -6 3 16 71813. 70906. 3422. o
10097 1 12 0 -16 71813. 70906. 3422. o
10098 1 14 0 16 41910. 50647. 4368. o
10099 1 14 0 -16 41736. 41433. 3296. o
10100 2 -8 4 -16 126015. 151453. 5060. o
10100 1 16 0 16 126015. 151453. 5060. o
10101 2 -8 4 16 128346. 138578. 3559. o
10101 1 16 0 -16 128346. 138578. 3559. o
10102 1 18 0 16 35201. 34477. 3053. o
10103 1 18 0 -16 35307. 38748. 3101. o
10104 2 -10 5 -16 33787. 34416. 2988. o
10104 1 20 0 16 33787. 34416. 2988. o
10105 2 -10 5 16 32637. 33378. 3232. o
10105 1 20 0 -16 32637. 33378. 3232. o
10106 1 22 0 16 986. -61. 2868. <
10107 1 22 0 -16 978. 7261. 3964. <
10108 2 -12 6 -16 38014. 33073. 4526. o
10108 1 24 0 16 38014. 33073. 4526. o
10109 2 -12 6 16 38362. 39175. 3109. o
10109 1 24 0 -16 38362. 39175. 3109. o
10110 1 26 0 16 960. 11289. 4327. o
10111 1 26 0 -16 980. 2990. 2440. <
10112 2 -14 7 -16 17680. 11472. 4460. o
10112 1 28 0 16 17680. 11472. 4460. o
10113 2 -14 7 16 17528. 18550. 2500. o
10113 1 28 0 -16 17528. 18550. 2500. o
10114 1 30 0 16 13971. 11228. 4578. o
10115 1 30 0 -16 13966. 16537. 2559. o
10116 2 16 -6 -16 40968. 31060. 4839. o
10116 1 -26 1 16 40968. 31060. 4839. o
10117 2 16 -6 16 41794. 37528. 2520. o
10117 1 -26 1 -16 41794. 37528. 2520. o
10118 2 14 -5 -16 23652. 23310. 2686. o
10118 1 -22 1 16 23652. 23310. 2686. o
10119 2 14 -5 16 23417. 28008. 2979. o
10119 1 -22 1 -16 23417. 28008. 2979. o
10120 2 12 -4 -16 7698. 6468. 2930. o
10120 1 -18 1 16 7698. 6468. 2930. o
10121 2 12 -4 16 7500. 3112. 2931. <
10121 1 -18 1 -16 7500. 3112. 2931. <
10122 2 10 -3 -16 122650. 134795. 3417. o
10122 1 -14 1 16 122650. 134795. 3417. o
10123 2 10 -3 16 124369. 136381. 3480. o
10123 1 -14 1 -16 124369. 136381. 3480. o
10124 2 8 -2 -16 72989. 82012. 3485. o
10124 1 -10 1 16 72989. 82012. 3485. o
10125 2 8 -2 16 73704. 79266. 3568. o
10125 1 -10 1 -16 73704. 79266. 3568. o
10126 2 6 -1 -16 17909. 19038. 3232. o
10126 1 -6 1 16 17909. 19038. 3232. o
10127 2 6 -1 16 17929. 15865. 3420. o
10127 1 -6 1 -16 17929. 15865. 3420. o
10128 2 4 0 -16 94241. 95314. 3776. o
10128 1 -2 1 16 94241. 95314. 3776. o
10129 2 4 0 16 96041. 89090. 3828. o
10129 1 -2 1 -16 96041. 89090. 3828. o
10130 1 0 1 16 40956. 38504. 3425. o
10131 1 0 1 -16 42524. 36490. 3496. o
10132 1 1 1 16 433. -2319. 2379. <
10133 1 1 1 -16 473. 1037. 2441. <
10134 2 2 1 -16 70301. 86954. 3561. o
10134 1 2 1 16 70301. 86954. 3561. o
10135 2 2 1 16 71313. 75483. 3700. o
10135 1 2 1 -16 71313. 75483. 3700. o
10136 1 3 1 16 16565. 19466. 2374. o
10137 1 3 1 -16 16365. 15011. 2504. o
10138 1 4 1 16 4268. 5309. 2379. o
10139 1 4 1 -16 4306. 4210. 2441. <
10140 1 5 1 16 101140. 94094. 2692. o
10141 1 5 1 -16 101272. 76398. 2830. o
10142 2 0 2 -16 33004. 30388. 3484. o
10142 1 6 1 16 33004. 30388. 3484. o
10143 2 0 2 16 33051. 19710. 3624. o
10143 1 6 1 -16 33051. 19710. 3624. o
10144 1 7 1 16 112103. 106725. 2683. o
10145 1 7 1 -16 111690. 89761. 2889. o
10146 1 8 1 16 8501. 9580. 2379. o
10147 1 8 1 -16 8599. 9519. 2440. o
10148 1 9 1 16 29486. 28008. 2385. o
10149 1 9 1 -16 29462. 27459. 2569. o
10150 2 -2 3 -16 78094. 82988. 3755. o
10150 1 10 1 16 78094. 82988. 3755. o
10151 2 -2 3 16 78496. 75238. 3922. o
10151 1 10 1 -16 78496. 75238. 3922. o
10152 1 11 1 16 40832. 46742. 2473. o
10153 1 11 1 -16 40936. 42653. 2494. o
10154 1 12 1 16 2401. -1037. 2746. <
10155 1 12 1 -16 2394. -122. 2380. <
10156 1 13 1 16 2043. 2868. 2563. <
10157 1 13 1 -16 2072. 5858. 2500. o
10158 2 -4 4 -16 132836. 156518. 3592. o
10158 1 14 1 16 132836. 156518. 3592. o
10159 2 -4 4 16 134827. 119783. 5462. o
10159 1 14 1 -16 134827. 119783. 5462. o
10160 1 15 1 16 16709. 19649. 2251. o
10161 1 15 1 -16 16800. 14523. 2323. o
10162 1 16 1 16 3319. 3112. 2136. <
10163 1 16 1 -16 3347. 5126. 2257. o
10164 1 17 1 16 11159. 12387. 2500. o
10165 1 17 1 -16 11252. 11655. 2257. o
10166 2 -6 5 -16 3509. 1220. 4882. <
10166 1 18 1 16 3509. 1220. 4882. <
10167 2 -6 5 16 3334. 5126. 3172. <
10167 1 18 1 -16 3334. 5126. 3172. <
10168 1 19 1 16 18360. 21052. 2129. o
10169 1 19 1 -16 18422. 21601. 2189. o
10170 1 20 1 16 10991. 11106. 2075. o
10171 1 20 1 -16 10959. 12936. 2133. o
10172 1 21 1 16 9811. 6651. 2078. o
10173 1 21 1 -16 9827. 11594. 2133. o
10174 2 -8 6 -16 22259. 16781. 4582. o
10174 1 22 1 16 22259. 16781. 4582. o
10175 2 -8 6 16 22221. 26117. 3165. o
10175 1 22 1 -16 22221. 26117. 3165. o
10176 1 23 1 16 2278. 6102. 2927. o
10177 1 23 1 -16 2295. 244. 2136. <
10178 1 24 1 16 7065. 6346. 2990. o
10179 1 24 1 -16 7081. 10129. 2132. o
10180 1 25 1 16 8586. 10007. 3172. o
10181 1 25 1 -16 8637. 12692. 1946. o
10182 2 -10 7 -16 44207. 28130. 4790. o
10182 1 26 1 16 44207. 28130. 4790. o
10183 2 -10 7 16 45058. 49915. 2662. o
10183 1 26 1 -16 45058. 49915. 2662. o
10184 1 27 1 16 12232. 12631. 3173. o
10185 1 27 1 -16 12323. 11411. 1771. o
10186 1 28 1 16 1594. 4882. 2989. <
10187 1 28 1 -16 1578. 8116. 1764. o
10188 1 29 1 16 5103. 7689. 3172. o
10189 1 29 1 -16 5086. 9580. 1764. o
10190 2 20 -6 -16 42543. 31731. 4963. o
10190 1 -28 2 16 42543. 31731. 4963. o
10191 2 20 -6 16 43175. 41616. 2570. o
10191 1 -28 2 -16 43175. 41616. 2570. o
10192 2 18 -5 -16 14070. 10068. 4396. o
10192 1 -24 2 16 14070. 10068. 4396. o
10193 2 18 -5 16 13939. 6163. 3057. o
10193 1 -24 2 -16 13939. 6163. 3057. o
10194 2 16 -4 -16 226344. 232550. 3744. o
10194 1 -20 2 16 226344. 232550. 3744. o
10195 2 16 -4 16 224560. 230414. 3813. o
10195 1 -20 2 -16 224560. 230414. 3813. o
10196 2 14 -3 -16 70223. 66268. 3377. o
10196 1 -16 2 16 70223. 66268. 3377. o
10197 2 14 -3 16 69220. 70418. 3349. o
10197 1 -16 2 -16 69220. 70418. 3349. o
10198 2 12 -2 -16 15951. 13119. 3359. o
10198 1 -12 2 16 15951. 13119. 3359. o
10199 2 12 -2 16 16090. 17879. 3354. o
10199 1 -12 2 -16 16090. 17879. 3354. o
10200 2 10 -1 -16 81397. 89578. 4042. o
10200 1 -8 2 16 81397. 89578. 4042. o
10201 2 10 -1 16 79768. 87504. 3922. o
10201 1 -8 2 -16 79768. 87504. 3922. o
10202 2 8 0 -16 191689. 176228. 4384. o
10202 1 -4 2 16 191689. 176228. 4384. o
10203 2 8 0 16 192652. 162010. 4589. o
10203 1 -4 2 -16 192652. 162010. 4589. o
10204 2 6 1 -16 88312. 100013. 4014. o
10204 1 0 2 16 88312. 100013. 4014. o
10205 2 6 1 16 88204. 87565. 4092. o
10205 1 0 2 -16 88204. 87565. 4092. o
10206 1 1 2 16 21787. 23432. 2681. o
10207 1 1 2 -16 21409. 24469. 2678. o
10208 1 2 2 16 6786. 9824. 2621. o
10209 1 2 2 -16 6639. 8238. 2623. o
10210 1 3 2 16 5655. 7322. 2623. o
10211 1 3 2 -16 5656. 5675. 2746. o
10212 2 4 2 -16 142713. 173299. 3882. o
10212 1 4 2 16 142713. 173299. 3882. o
10213 2 4 2 16 143112. 164573. 4503. o
10213 1 4 2 -16 143112. 164573. 4503. o
10214 1 5 2 16 11070. 16964. 2676. o
10215 1 5 2 -16 10736. 5919. 2689. o
10216 1 6 2 16 10896. 9946. 2625. o
10217 1 6 2 -16 10669. 10923. 2807. o
10218 1 7 2 16 725. 3417. 2562. <
10219 1 7 2 -16 687. -1831. 2624. <
10220 2 2 3 -16 88281. 73835. 3863. o
10220 1 8 2 16 88281. 73835. 3863. o
10221 2 2 3 16 86754. 65780. 4068. o
10221 1 8 2 -16 86754. 65780. 4068. o
10222 1 9 2 16 7094. 8482. 2440. o
10223 1 9 2 -16 7274. 6224. 2625. o
10224 1 10 2 16 2001. 3173. 2746. <
10225 1 10 2 -16 2001. 5248. 2561. o
10226 1 11 2 16 6981. 7628. 2684. o
10227 1 11 2 -16 6991. 10557. 2559. o
10228 2 0 4 -16 15394. 22395. 4629. o
10228 1 12 2 16 15394. 22395. 4629. o
10229 2 0 4 16 15574. 14889. 3601. o
10229 1 12 2 -16 15574. 14889. 3601. o
10230 1 13 2 16 16887. 20259. 2678. o
10231 1 13 2 -16 16996. 15072. 2932. o
10232 1 14 2 16 2463. 4332. 2745. <
10233 1 14 2 -16 2465. 7933. 4330. <
10234 1 15 2 16 5570. 4638. 2502. <
10235 1 15 2 -16 5523. 7811. 3172. o
10236 2 -2 5 -16 68592. 69930. 3777. o
10236 1 16 2 16 68592. 69930. 3777. o
10237 2 -2 5 16 67671. 65109. 3795. o
10237 1 16 2 -16 67671. 65109. 3795. o
10238 1 17 2 16 9829. 10129. 2257. o
10239 1 17 2 -16 9540. 10496. 2318. o
10240 1 18 2 16 52413. 59373. 2335. o
10241 1 18 2 -16 52330. 51135. 2448. o
10242 1 19 2 16 16972. 17147. 2257. o
10243 1 19 2 -16 16826. 14340. 2323. o
10244 2 -4 6 -16 217276. 234868. 3882. o
10244 1 20 2 16 217276. 234868. 3882. o
10245 2 -4 6 16 215656. 243167. 3781. o
10245 1 20 2 -16 215656. 243167. 3781. o
10246 1 21 2 16 6966. 9885. 2499. o
10247 1 21 2 -16 7007. 9397. 2194. o
10248 1 22 2 16 12234. 10679. 2321. o
10249 1 22 2 -16 12263. 15804. 2190. o
10250 1 23 2 16 2925. 10129. 3107. o
10251 1 23 2 -16 2881. 7445. 2132. o
10252 2 -6 7 -16 14245. 12082. 3846. o
10252 1 24 2 16 14245. 12082. 3846. o
10253 2 -6 7 16 14101. 12875. 3296. o
10253 1 24 2 -16 14101. 12875. 3296. o
10254 1 25 2 16 17014. 16354. 3235. o
10255 1 25 2 -16 16965. 17391. 2013. o
10256 1 26 2 16 8250. 13364. 3229. o
10257 1 26 2 -16 8347. 8848. 1769. o
10258 1 27 2 16 3098. 9519. 3230. o
10259 1 27 2 -16 3081. 6346. 1767. o
10260 2 -8 8 -16 40788. 22272. 4910. o
10260 1 28 2 16 40788. 22272. 4910. o
10261 2 -8 8 16 41395. 40457. 2932. o
10261 1 28 2 -16 41395. 40457. 2932. o
10262 1 29 2 16 995. 10557. 3351. o
10263 1 29 2 -16 1034. 6956. 1765. o
10264 2 22 -5 -16 48066. 35331. 4909. o
10264 1 -26 3 16 48066. 35331. 4909. o
10265 2 22 -5 16 48986. 41250. 2478. o
10265 1 -26 3 -16 48986. 41250. 2478. o
10266 2 20 -4 -16 15218. 12326. 4823. o
10266 1 -22 3 16 15218. 12326. 4823. o
10267 2 20 -4 16 15207. 15072. 3112. o
10267 1 -22 3 -16 15207. 15072. 3112. o
10268 2 18 -3 -16 18145. 21540. 3167. o
10268 1 -18 3 16 18145. 21540. 3167. o
10269 2 18 -3 16 18008. 22639. 2920. o
10269 1 -18 3 -16 18008. 22639. 2920. o
10270 2 16 -2 -16 28604. 31853. 2981. o
10270 1 -14 3 16 28604. 31853. 2981. o
10271 2 16 -2 16 29486. 32707. 3287. o
10271 1 -14 3 -16 29486. 32707. 3287. o
10272 2 14 -1 -16 42813. 55895. 3612. o
10272 1 -10 3 16 42813. 55895. 3612. o
10273 2 14 -1 16 42558. 48206. 5540. o
10273 1 -10 3 -16 42558. 48206. 5540. o
10274 2 12 0 -16 15502. 13302. 3663. o
10274 1 -6 3 16 15502. 13302. 3663. o
10275 2 12 0 16 15543. 17635. 3720. o
10275 1 -6 3 -16 15543. 17635. 3720. o
10276 2 10 1 -16 103595. 111729. 4339. o
10276 1 -2 3 16 103595. 111729. 4339. o
10277 2 10 1 16 103426. 95863. 4137. o
10277 1 -2 3 -16 103426. 95863. 4137. o
10278 1 0 3 16 67603. 74079. 4304. o
10279 1 0 3 -16 67360. 55407. 4376. o
10280 1 1 3 16 65234. 74140. 2995. o
10281 1 1 3 -16 65765. 60166. 2900. o
10282 2 8 2 -16 105379. 121065. 3968. o
10282 1 2 3 16 105379. 121065. 3968. o
10283 2 8 2 16 105623. 115634. 4139. o
10283 1 2 3 -16 105623. 115634. 4139. o
10284 1 3 3 16 1466. 3600. 2562. <
10285 1 3 3 -16 1524. 2563. 2807. <
10286 1 4 3 16 1027. 2868. 2562. <
10287 1 4 3 -16 978. 5919. 2866. o
10288 1 5 3 16 36570. 35514. 2689. o
10289 1 5 3 -16 36534. 36856. 2867. o
10290 2 6 3 -16 148. 10984. 3778. o
10290 1 6 3 16 148. 10984. 3778. o
10291 2 6 3 16 154. 5004. 3782. <
10291 1 6 3 -16 154. 5004. 3782. <
10292 1 7 3 16 42241. 47962. 2905. o
10293 1 7 3 -16 42867. 37955. 2947. o
10294 1 8 3 16 5885. 5187. 2624. <
10295 1 8 3 -16 5960. 7078. 2623. o
10296 1 9 3 16 5294. 9336. 2621. o
10297 1 9 3 -16 5429. 4638. 3173. <
10298 2 4 4 -16 30771. 25751. 3854. o
10298 1 10 3 16 30771. 25751. 3854. o
10299 2 4 4 16 31136. 24530. 4222. o
10299 1 10 3 -16 31136. 24530. 4222. o
10300 1 11 3 16 822. 732. 2563. <
10301 1 11 3 -16 997. -610. 2502. <
10302 1 12 3 16 53006. 54674. 2676. o
10303 1 12 3 -16 53545. 53149. 3419. o
10304 1 13 3 16 27354. 34233. 2725. o
10305 1 13 3 -16 27840. 25507. 3300. o
10306 2 2 5 -16 16039. 16414. 4515. o
10306 1 14 3 16 16039. 16414. 4515. o
10307 2 2 5 16 16670. 17208. 3844. o
10307 1 14 3 -16 16670. 17208. 3844. o
10308 1 15 3 16 21175. 22456. 3110. o
10309 1 15 3 -16 21181. 23676. 2496. o
10310 1 16 3 16 8773. 10007. 2867. o
10311 1 16 3 -16 8699. 8970. 2502. o
10312 1 17 3 16 2277. 4882. 2318. o
10313 1 17 3 -16 2258. 6041. 2378. o
10314 2 0 6 -16 17151. 17696. 3538. o
10314 1 18 3 16 17151. 17696. 3538. o
10315 2 0 6 16 16934. 14157. 3847. o
10315 1 18 3 -16 16934. 14157. 3847. o
10316 1 19 3 16 2387. 3478. 2257. <
10317 1 19 3 -16 2367. 1342. 2258. <
10318 1 20 3 16 7344. 6407. 2686. o
10319 1 20 3 -16 7340. 7994. 2379. o
10320 1 21 3 16 3020. 8909. 3475. o
10321 1 21 3 -16 3030. 5797. 2745. o
10322 2 -2 7 -16 9407. 2075. 5310. <
10322 1 22 3 16 9407. 2075. 5310. <
10323 2 -2 7 16 9295. 8665. 3296. o
10323 1 22 3 -16 9295. 8665. 3296. o
10324 1 23 3 16 21450. 21601. 3417. o
10325 1 23 3 -16 21410. 21113. 2320. o
10326 1 24 3 16 5233. 10801. 3169. o
10327 1 24 3 -16 5233. 8726. 1766. o
10328 1 25 3 16 8919. 6590. 3358. <
10329 1 25 3 -16 8984. 11167. 1705. o
10330 2 -4 8 -16 45326. 33866. 5513. o
10330 1 26 3 16 45326. 33866. 5513. o
10331 2 -4 8 16 46205. 47230. 3413. o
10331 1 26 3 -16 46205. 47230. 3413. o
10332 1 27 3 16 7124. 11960. 3413. o
10333 1 27 3 -16 7023. 9519. 1889. o
10334 1 28 3 16 2582. 7078. 3354. o
10335 1 28 3 -16 2590. 5614. 1706. o
10336 2 24 -4 -16 18422. 9397. 4949. <
10336 1 -24 4 16 18422. 9397. 4949. <
10337 2 24 -4 16 18566. 18184. 2686. o
10337 1 -24 4 -16 18566. 18184. 2686. o
10338 2 22 -3 -16 29882. 39541. 3267. o
10338 1 -20 4 16 29882. 39541. 3267. o
10339 2 22 -3 16 29458. 31853. 3350. o
10339 1 -20 4 -16 29458. 31853. 3350. o
10340 2 20 -2 -16 107885. 115695. 3658. o
10340 1 -16 4 16 107885. 115695. 3658. o
10341 2 20 -2 16 109050. 118441. 3768. o
10341 1 -16 4 -16 109050. 118441. 3768. o
10342 2 18 -1 -16 22931. 22150. 3663. o
10342 1 -12 4 16 22931. 22150. 3663. o
10343 2 18 -1 16 23170. 29717. 5972. o
10343 1 -12 4 -16 23170. 29717. 5972. o
10344 2 16 0 -16 113135. 125764. 4112. o
10344 1 -8 4 16 113135. 125764. 4112. o
10345 2 16 0 16 111720. 118319. 4100. o
10345 1 -8 4 -16 111720. 118319. 4100. o
10346 2 14 1 -16 91356. 88419. 4227. o
10346 1 -4 4 16 91356. 88419. 4227. o
10347 2 14 1 16 89836. 91470. 4262. o
10347 1 -4 4 -16 89836. 91470. 4262. o
10348 2 12 2 -16 13506. 12692. 4028. o
10348 1 0 4 16 13506. 12692. 4028. o
10349 2 12 2 16 13453. 14096. 4088. o
10349 1 0 4 -16 13453. 14096. 4088. o
10350 1 1 4 16 4833. 9092. 2804. o
10351 1 1 4 -16 4783. 6346. 2989. o
10352 1 2 4 16 5726. 8116. 2927. o
10353 1 2 4 -16 5768. 10068. 2987. o
10354 1 3 4 16 16538. 14706. 2993. o
10355 1 3 4 -16 16364. 11594. 3057. o
10356 2 10 3 -16 69170. 71150. 4202. o
10356 1 4 4 16 69170. 71150. 4202. o
10357 2 10 3 16 67997. 76032. 4419. o
10357 1 4 4 -16 67997. 76032. 4419. o
10358 1 5 4 16 6239. 5675. 2807. o
10359 1 5 4 -16 5799. 7322. 2928. o
10360 1 6 4 16 25982. 24225. 2933. o
10361 1 6 4 -16 25567. 23615. 2872. o
10362 1 7 4 16 47502. 47657. 2806. o
10363 1 7 4 -16 47179. 47413. 2928. o
10364 2 8 4 -16 108866. 123262. 4351. o
10364 1 8 4 16 108866. 123262. 4351. o
10365 2 8 4 16 108111. 98121. 4816. o
10365 1 8 4 -16 108111. 98121. 4816. o
10366 1 9 4 16 11855. 11777. 2807. o
10367 1 9 4 -16 11940. 12631. 3416. o
10368 1 10 4 16 11895. 11899. 2746. o
10369 1 10 4 -16 12014. 13852. 3965. o
10370 1 11 4 16 11366. 8787. 2748. o
10371 1 11 4 -16 11331. 15377. 3352. o
10372 2 6 5 -16 23016. 19282. 3789. o
10372 1 12 4 16 23016. 19282. 3789. o
10373 2 6 5 16 23202. 14035. 4038. o
10373 1 12 4 -16 23202. 14035. 4038. o
10374 1 13 4 16 51579. 56627. 2904. o
10375 1 13 4 -16 51150. 45948. 3194. o
10376 1 14 4 16 6242. 5614. 2624. o
10377 1 14 4 -16 6263. 3722. 2442. <
10378 1 15 4 16 12540. 13364. 2501. o
10379 1 15 4 -16 12618. 16414. 2496. o
10380 2 4 6 -16 67228. 84330. 3750. o
10380 1 16 4 16 67228. 84330. 3750. o
10381 2 4 6 16 68037. 66634. 4277. o
10381 1 16 4 -16 68037. 66634. 4277. o
10382 1 17 4 16 22234. 22639. 2501. o
10383 1 17 4 -16 22346. 24652. 2741. o
10384 1 18 4 16 17566. 18489. 2622. o
10385 1 18 4 -16 17299. 15987. 2504. o
10386 1 19 4 16 473. 2990. 3173. <
10387 1 19 4 -16 528. 3478. 2501. <
10388 2 2 7 -16 27996. 20137. 5744. o
10388 1 20 4 16 27996. 20137. 5744. o
10389 2 2 7 16 27544. 21662. 3063. o
10389 1 20 4 -16 27544. 21662. 3063. o
10390 1 21 4 16 1337. 4821. 2806. <
10391 1 21 4 -16 1272. 2990. 2196. <
10392 1 22 4 16 4557. 5004. 4759. <
10393 1 22 4 -16 4586. 2990. 2319. <
10394 1 23 4 16 6750. 9641. 4758. o
10395 1 23 4 -16 6748. 8421. 2317. o
10396 2 0 8 -16 19199. 8482. 5498. <
10396 1 24 4 16 19199. 8482. 5498. <
10397 2 0 8 16 19407. 21967. 3718. o
10397 1 24 4 -16 19407. 21967. 3718. o
10398 1 25 4 16 11826. 7261. 3725. <
10399 1 25 4 -16 11835. 15133. 2069. o
10400 1 26 4 16 5638. 10679. 3536. o
10401 1 26 4 -16 5636. 8177. 1950. o
10402 2 26 -3 -16 25956. 13119. 5381. o
10402 1 -22 5 16 25956. 13119. 5381. o
10403 2 26 -3 16 25560. 25385. 3418. o
10403 1 -22 5 -16 25560. 25385. 3418. o
10404 2 24 -2 -16 7174. 6712. 3417. <
10404 1 -18 5 16 7174. 6712. 3417. <
10405 2 24 -2 16 7231. 8177. 3600. o
10405 1 -18 5 -16 7231. 8177. 3600. o
10406 2 22 -1 -16 43174. 44728. 3840. o
10406 1 -14 5 16 43174. 44728. 3840. o
10407 2 22 -1 16 43726. 42287. 3788. o
10407 1 -14 5 -16 43726. 42287. 3788. o
10408 2 20 0 -16 14691. 11411. 3969. o
10408 1 -10 5 16 14691. 11411. 3969. o
10409 2 20 0 16 14596. 18489. 3717. o
10409 1 -10 5 -16 14596. 18489. 3717. o
10410 2 18 1 -16 3559. 3905. 3661. <
10410 1 -6 5 16 3559. 3905. 3661. <
10411 2 18 1 16 3691. 8299. 3781. o
10411 1 -6 5 -16 3691. 8299. 3781. o
10412 2 16 2 -16 21327. 20564. 4028. o
10412 1 -2 5 16 21327. 20564. 4028. o
10413 2 16 2 16 21821. 20381. 4212. o
10413 1 -2 5 -16 21821. 20381. 4212. o
10414 1 0 5 16 53697. 47108. 4352. o
10415 1 0 5 -16 54324. 46376. 4842. o
10416 1 1 5 16 14527. 12448. 2810. o
10417 1 1 5 -16 14524. 15621. 2866. o
10418 2 14 3 -16 10424. 15133. 4084. o
10418 1 2 5 16 10424. 15133. 4084. o
10419 2 14 3 16 10584. 13852. 4452. o
10419 1 2 5 -16 10584. 13852. 4452. o
10420 1 3 5 16 3357. 3722. 2990. <
10421 1 3 5 -16 3336. 2868. 2990. <
10422 1 4 5 16 3647. 4393. 2868. <
10423 1 4 5 -16 3657. 5431. 2806. <
10424 1 5 5 16 752. 3478. 2684. <
10425 1 5 5 -16 752. 5248. 2866. <
10426 2 12 4 -16 7820. 7811. 4027. <
10426 1 6 5 16 7820. 7811. 4027. <
10427 2 12 4 16 7874. 6651. 4516. <
10427 1 6 5 -16 7874. 6651. 4516. <
10428 1 7 5 16 6605. 8421. 2684. o
10429 1 7 5 -16 6664. 6590. 2868. o
10430 1 8 5 16 17256. 18123. 2744. o
10431 1 8 5 -16 17114. 15438. 3358. o
10432 1 9 5 16 3392. 4577. 2623. <
10433 1 9 5 -16 3557. 4455. 3234. <
10434 2 10 5 -16 9743. 11106. 4210. o
10434 1 10 5 16 9743. 11106. 4210. o
10435 2 10 5 16 9462. 10068. 4393. o
10435 1 10 5 -16 9462. 10068. 4393. o
10436 1 11 5 16 79400. 83720. 3266. o
10437 1 11 5 -16 79126. 80974. 3773. o
10438 1 12 5 16 46074. 48878. 2610. o
10439 1 12 5 -16 46253. 43508. 3366. o
10440 1 13 5 16 18677. 14889. 2935. o
10441 1 13 5 -16 19141. 24713. 2550. o
10442 2 8 6 -16 47322. 36918. 5877. o
10442 1 14 5 16 47322. 36918. 5877. o
10443 2 8 6 16 47931. 43630. 4344. o
10443 1 14 5 -16 47931. 43630. 4344. o
10444 1 15 5 16 8785. 6407. 2992. o
10445 1 15 5 -16 8771. 10496. 2805. o
10446 1 16 5 16 5334. 7200. 2989. o
10447 1 16 5 -16 5343. 4455. 2807. <
10448 1 17 5 16 913. 3295. 2928. <
10449 1 17 5 -16 925. 6102. 2683. o
10450 2 6 7 -16 5517. 6224. 5675. <
10450 1 18 5 16 5517. 6224. 5675. <
10451 2 6 7 16 5528. 5126. 3722. <
10451 1 18 5 -16 5528. 5126. 3722. <
10452 1 19 5 16 3444. 9397. 3108. o
10453 1 19 5 -16 3463. 9092. 2620. o
10454 1 20 5 16 6215. 9641. 3048. o
10455 1 20 5 -16 6151. 8848. 2622. o
10456 1 21 5 16 1766. 2929. 3783. <
10457 1 21 5 -16 1821. 3539. 2440. <
10458 2 4 8 -16 16906. 13242. 5677. o
10458 1 22 5 16 16906. 13242. 5677. o
10459 2 4 8 16 16703. 20015. 4390. o
10459 1 22 5 -16 16703. 20015. 4390. o
10460 1 23 5 16 93. 7078. 3964. <
10461 1 23 5 -16 93. 5126. 2195. o
10462 1 24 5 16 11853. 9397. 3846. o
10463 1 24 5 -16 12035. 12021. 2258. o
10464 2 28 -2 -16 20569. 16292. 5130. o
10464 1 -20 6 16 20569. 16292. 5130. o
10465 2 28 -2 16 20255. 19527. 3296. o
10465 1 -20 6 -16 20255. 19527. 3296. o
10466 2 26 -1 -16 17045. 20625. 3473. o
10466 1 -16 6 16 17045. 20625. 3473. o
10467 2 26 -1 16 16911. 15499. 3419. o
10467 1 -16 6 -16 16911. 15499. 3419. o
10468 2 24 0 -16 12434. 9763. 3968. o
10468 1 -12 6 16 12434. 9763. 3968. o
10469 2 24 0 16 12321. 20015. 5424. o
10469 1 -12 6 -16 12321. 20015. 5424. o
10470 2 22 1 -16 37562. 41982. 4015. o
10470 1 -8 6 16 37562. 41982. 4015. o
10471 2 22 1 16 37200. 38992. 5550. o
10471 1 -8 6 -16 37200. 38992. 5550. o
10472 2 20 2 -16 66270. 74018. 4483. o
10472 1 -4 6 16 66270. 74018. 4483. o
10473 2 20 2 16 66671. 70967. 3946. o
10473 1 -4 6 -16 66671. 70967. 3946. o
10474 2 18 3 -16 13106. 13791. 4149. o
10474 1 0 6 16 13106. 13791. 4149. o
10475 2 18 3 16 13340. 15621. 3903. o
10475 1 0 6 -16 13340. 15621. 3903. o
10476 1 1 6 16 15161. 9214. 2813. o
10477 1 1 6 -16 14980. 13852. 2991. o
10478 1 2 6 16 3463. 5919. 3111. <
10479 1 2 6 -16 3447. 2502. 2807. <
10480 1 3 6 16 22113. 23371. 3293. o
10481 1 3 6 -16 22325. 20930. 3054. o
10482 2 16 4 -16 34762. 45338. 4182. o
10482 1 4 6 16 34762. 45338. 4182. o
10483 2 16 4 16 34643. 36185. 4634. o
10483 1 4 6 -16 34643. 36185. 4634. o
10484 1 5 6 16 52603. 53637. 2985. o
10485 1 5 6 -16 52597. 49061. 3188. o
10486 1 6 6 16 23573. 20564. 2874. o
10487 1 6 6 -16 23091. 18855. 2998. o
10488 1 7 6 16 1105. 3417. 2562. <
10489 1 7 6 -16 1199. 5370. 2866. <
10490 2 14 5 -16 43089. 41677. 5739. o
10490 1 8 6 16 43089. 41677. 5739. o
10491 2 14 5 16 42588. 26727. 4849. o
10491 1 8 6 -16 42588. 26727. 4849. o
10492 1 9 6 16 2890. 854. 2990. <
10493 1 9 6 -16 2855. 2990. 3539. <
10494 1 10 6 16 3459. 2929. 3417. <
10495 1 10 6 -16 3417. 3966. 3051. <
10496 1 11 6 16 1896. 4455. 3294. <
10497 1 11 6 -16 1853. 3356. 3356. <
10498 2 12 6 -16 5393. 7567. 3782. <
10498 1 12 6 16 5393. 7567. 3782. <
10499 2 12 6 16 5362. 4760. 4760. <
10499 1 12 6 -16 5362. 4760. 4760. <
10500 1 13 6 16 4273. 8848. 2865. o
10501 1 13 6 -16 4329. 6041. 2928. o
10502 1 14 6 16 8540. 10984. 3659. o
10503 1 14 6 -16 8686. 10740. 2927. o
10504 1 15 6 16 16630. 12936. 3848. o
10505 1 15 6 -16 16380. 14645. 2748. o
10506 2 10 7 16 13628. 15133. 4148. o
10506 1 16 6 -16 13628. 15133. 4148. o
10507 1 17 6 16 5113. 8482. 3354. o
10508 1 17 6 -16 4814. 7261. 2439. o
10509 1 18 6 16 9202. 10007. 3417. o
10510 1 18 6 -16 8924. 8848. 2441. o
10511 1 19 6 16 27198. 13424. 3801. o
10512 1 19 6 -16 26898. 26605. 2564. o
10513 2 8 8 -16 12641. 12143. 6041. o
10513 1 20 6 16 12641. 12143. 6041. o
10514 2 8 8 16 12469. 12997. 3600. o
10514 1 20 6 -16 12469. 12997. 3600. o
10515 1 21 6 16 13211. 10557. 3907. o
10516 1 21 6 -16 13281. 14706. 2133. o
10517 2 28 0 -16 4268. 8299. 4087. o
10517 1 -14 7 16 4268. 8299. 4087. o
10518 2 28 0 16 4355. 7567. 4026. <
10518 1 -14 7 -16 4355. 7567. 4026. <
10519 2 26 1 -16 32138. 28314. 4339. o
10519 1 -10 7 16 32138. 28314. 4339. o
10520 2 26 1 16 31887. 40152. 6150. o
10520 1 -10 7 -16 31887. 40152. 6150. o
10521 2 24 2 -16 7902. 9519. 4087. o
10521 1 -6 7 16 7902. 9519. 4087. o
10522 2 24 2 16 8021. 8665. 3783. o
10522 1 -6 7 -16 8021. 8665. 3783. o
10523 2 22 3 -16 2356. 1953. 6407. <
10523 1 -2 7 16 2356. 1953. 6407. <
10524 2 22 3 16 2401. 7994. 3964. o
10524 1 -2 7 -16 2401. 7994. 3964. o
10525 1 0 7 16 48210. 40396. 4353. o
10526 1 0 7 -16 48667. 52051. 7255. o
10527 1 1 7 16 26208. 21235. 2939. o
10528 1 1 7 -16 26304. 21479. 3730. o
10529 2 20 4 -16 6258. 9580. 4087. o
10529 1 2 7 16 6258. 9580. 4087. o
10530 2 20 4 16 6375. 10740. 4635. o
10530 1 2 7 -16 6375. 10740. 4635. o
10531 1 3 7 16 1317. 7506. 3415. o
10532 1 3 7 -16 1243. 671. 2929. <
10533 1 4 7 16 2057. 5919. 3355. <
10534 1 4 7 -16 2088. 3966. 2989. <
10535 1 5 7 16 259. 6773. 3415. <
10536 1 5 7 -16 267. 5858. 2988. <
10537 2 18 5 -16 6077. 4455. 4089. <
10537 1 6 7 16 6077. 4455. 4089. <
10538 2 18 5 16 6163. 9519. 4819. <
10538 1 6 7 -16 6163. 9519. 4819. <
10539 1 7 7 16 446. 4760. 2928. <
10540 1 7 7 -16 450. 5004. 3172. <
10541 1 8 7 16 1231. 5614. 2927. <
10542 1 8 7 -16 1229. 5553. 2988. <
10543 1 9 7 16 614. 4149. 3355. <
10544 1 9 7 -16 551. 5492. 4148. <
10545 2 16 6 16 25364. 9641. 5564. <
10545 1 10 7 -16 25364. 9641. 5564. <
10546 1 11 7 16 1177. 6285. 3354. <
10547 1 11 7 -16 1073. 3966. 3050. <
10548 1 12 7 16 22004. 9214. 4039. o
10549 1 12 7 -16 22554. 16964. 2878. o
10550 1 13 7 16 36454. 25324. 4413. o
10551 1 13 7 -16 36275. 30938. 3006. o
10552 2 14 7 16 727. 5309. 3782. <
10552 1 14 7 -16 727. 5309. 3782. <
10553 1 15 7 16 486. 5797. 3660. <
10554 1 15 7 -16 500. 4516. 3111. <
10555 1 16 7 16 4784. 9031. 3964. o
10556 1 16 7 -16 4822. 9519. 3170. o
10557 1 17 7 16 3512. 4516. 4271. <
10558 1 17 7 -16 3456. 7872. 2743. o
10559 2 28 2 -16 12264. 11655. 4333. o
10559 1 -8 8 16 12264. 11655. 4333. o
10560 2 28 2 16 12068. 9763. 3907. o
10560 1 -8 8 -16 12068. 9763. 3907. o
10561 2 26 3 -16 12965. 13669. 4515. o
10561 1 -4 8 16 12965. 13669. 4515. o
10562 2 26 3 16 12761. 11838. 4150. o
10562 1 -4 8 -16 12761. 11838. 4150. o
10563 2 24 4 -16 22195. 18855. 4702. o
10563 1 0 8 16 22195. 18855. 4702. o
10564 2 24 4 16 22042. 19405. 6836. o
10564 1 0 8 -16 22042. 19405. 6836. o
10565 1 1 8 16 2649. 5858. 3233. <
10566 1 1 8 -16 2672. 6346. 3660. <
10567 1 2 8 16 938. 2868. 3112. <
10568 1 2 8 -16 916. 9458. 3901. o
10569 1 3 8 16 16617. 16781. 3234. o
10570 1 3 8 -16 16453. 12448. 3117. o
10571 2 22 5 -16 6679. 10801. 4757. o
10571 1 4 8 16 6679. 10801. 4757. o
10572 2 22 5 16 6707. 11106. 8114. <
10572 1 4 8 -16 6707. 11106. 8114. <
10573 1 5 8 16 1170. 7139. 3232. o
10574 1 5 8 -16 1088. 2441. 4027. <
10575 1 6 8 16 17569. 11838. 4215. o
10576 1 6 8 -16 17176. 17086. 3539. o
10577 1 7 8 16 15187. 11106. 4153. o
10578 1 7 8 -16 15060. 15804. 3477. o
10579 2 20 6 16 6075. 7078. 5247. <
10579 1 8 8 -16 6075. 7078. 5247. <
10580 1 9 8 16 17579. 10007. 3485. o
10581 1 9 8 -16 17640. 15194. 4579. o
10582 1 10 8 16 1205. 2563. 6895. <
10583 1 10 8 -16 1215. 7078. 4331. <
10584 1 2 0 17 56385. 67733. 3732. o
10585 1 2 0 -17 55794. 61387. 3944. o
10586 2 -2 1 -17 99544. 109044. 3774. o
10586 1 4 0 17 99544. 109044. 3774. o
10587 2 -2 1 17 98050. 100379. 3767. o
10587 1 4 0 -17 98050. 100379. 3767. o
10588 1 6 0 17 30516. 23432. 3553. o
10589 1 6 0 -17 29940. 20015. 3617. o
10590 2 -4 2 -17 368603. 344889. 4930. o
10590 1 8 0 17 368603. 344889. 4930. o
10591 2 -4 2 17 366650. 323226. 5363. o
10591 1 8 0 -17 366650. 323226. 5363. o
10592 1 10 0 17 67160. 69075. 3468. o
10593 1 10 0 -17 67987. 72370. 3577. o
10594 2 -6 3 -17 7823. 12509. 3230. o
10594 1 12 0 17 7823. 12509. 3230. o
10595 2 -6 3 17 7843. 2685. 4273. <
10595 1 12 0 -17 7843. 2685. 4273. <
10596 1 14 0 17 86415. 87809. 4875. o
10597 1 14 0 -17 86670. 88785. 4933. o
10598 2 -8 4 -17 149660. 154809. 3665. o
10598 1 16 0 17 149660. 154809. 3665. o
10599 2 -8 4 17 150751. 152552. 3703. o
10599 1 16 0 -17 150751. 152552. 3703. o
10600 1 18 0 17 20118. 15926. 2996. o
10601 1 18 0 -17 20234. 18184. 3054. o
10602 2 -10 5 -17 32613. 30632. 3117. o
10602 1 20 0 17 32613. 30632. 3117. o
10603 2 -10 5 17 32476. 31609. 3236. o
10603 1 20 0 -17 32476. 31609. 3236. o
10604 1 22 0 17 5459. 4699. 2746. <
10605 1 22 0 -17 5417. 12814. 3044. o
10606 2 -12 6 -17 3803. 1281. 4333. <
10606 1 24 0 17 3803. 1281. 4333. <
10607 2 -12 6 17 3743. 3112. 3112. <
10607 1 24 0 -17 3743. 3112. 3112. <
10608 1 26 0 17 15466. 14767. 4394. o
10609 1 26 0 -17 15485. 16781. 2622. o
10610 2 -14 7 -17 55764. 20625. 4763. o
10610 1 28 0 17 55764. 20625. 4763. o
10611 2 -14 7 17 55886. 58763. 2730. o
10611 1 28 0 -17 55886. 58763. 2730. o
10612 2 16 -6 -17 23148. 15316. 4707. o
10612 1 -26 1 17 23148. 15316. 4707. o
10613 2 16 -6 17 23698. 21357. 2446. o
10613 1 -26 1 -17 23698. 21357. 2446. o
10614 2 14 -5 -17 12598. 21662. 4506. o
10614 1 -22 1 17 12598. 21662. 4506. o
10615 2 14 -5 17 12264. 4699. 3056. <
10615 1 -22 1 -17 12264. 4699. 3056. <
10616 2 12 -4 -17 3679. 9946. 2741. o
10616 1 -18 1 17 3679. 9946. 2741. o
10617 2 12 -4 17 3624. 1220. 2929. <
10617 1 -18 1 -17 3624. 1220. 2929. <
10618 2 10 -3 -17 23305. 26727. 3043. o
10618 1 -14 1 17 23305. 26727. 3043. o
10619 2 10 -3 17 24176. 23310. 3053. o
10619 1 -14 1 -17 24176. 23310. 3053. o
10620 2 8 -2 -17 48805. 50586. 3532. o
10620 1 -10 1 17 48805. 50586. 3532. o
10621 2 8 -2 17 48865. 53515. 3582. o
10621 1 -10 1 -17 48865. 53515. 3582. o
10622 2 6 -1 -17 27399. 17147. 3494. o
10622 1 -6 1 17 27399. 17147. 3494. o
10623 2 6 -1 17 27324. 12448. 3498. o
10623 1 -6 1 -17 27324. 12448. 3498. o
10624 2 4 0 -17 29476. 39785. 3634. o
10624 1 -2 1 17 29476. 39785. 3634. o
10625 2 4 0 17 29984. 30388. 3660. o
10625 1 -2 1 -17 29984. 30388. 3660. o
10626 1 1 1 17 3937. 6346. 2439. o
10627 1 1 1 -17 3979. 3295. 2563. <
10628 2 2 1 -17 10782. 18550. 3591. o
10628 1 2 1 17 10782. 18550. 3591. o
10629 2 2 1 17 10935. 14157. 3658. o
10629 1 2 1 -17 10935. 14157. 3658. o
10630 1 3 1 17 9981. 12692. 2498. o
10631 1 3 1 -17 10099. 12753. 2560. o
10632 1 4 1 17 8056. 6956. 2564. o
10633 1 4 1 -17 7777. 4760. 2565. <
10634 1 5 1 17 42537. 44423. 2615. o
10635 1 5 1 -17 42756. 41860. 2628. o
10636 1 6 1 17 22574. 18428. 3728. o
10637 1 6 1 -17 22479. 18611. 3850. o
10638 1 7 1 17 47079. 37284. 2604. o
10639 1 7 1 -17 47269. 33928. 2735. o
10640 1 8 1 17 13146. 12021. 2442. o
10641 1 8 1 -17 13061. 10862. 2566. o
10642 1 9 1 17 5722. 6651. 2379. o
10643 1 9 1 -17 5817. 6773. 2440. o
10644 2 -2 3 -17 47388. 57115. 3746. o
10644 1 10 1 17 47388. 57115. 3746. o
10645 2 -2 3 17 47154. 54980. 3754. o
10645 1 10 1 -17 47154. 54980. 3754. o
10646 1 11 1 17 4381. 9214. 2315. o
10647 1 11 1 -17 4306. 6956. 2439. o
10648 1 12 1 17 2710. 1892. 2563. <
10649 1 12 1 -17 2856. 7322. 2682. o
10650 1 13 1 17 13958. 19282. 2676. o
10651 1 13 1 -17 13920. 10740. 2628. o
10652 2 -4 4 -17 35233. 44789. 5534. o
10652 1 14 1 17 35233. 44789. 5534. o
10653 2 -4 4 17 36214. 38199. 4633. o
10653 1 14 1 -17 36214. 38199. 4633. o
10654 1 15 1 17 2643. -61. 2624. <
10655 1 15 1 -17 2609. 915. 2502. <
10656 1 16 1 17 3399. 3173. 2136. <
10657 1 16 1 -17 3309. 1953. 2197. <
10658 1 17 1 17 17442. 13913. 2203. o
10659 1 17 1 -17 17287. 18733. 2316. o
10660 2 -6 5 -17 11422. 11899. 3234. o
10660 1 18 1 17 11422. 11899. 3234. o
10661 2 -6 5 17 11345. 12997. 3293. o
10661 1 18 1 -17 11345. 12997. 3293. o
10662 1 19 1 17 22903. 19954. 2204. o
10663 1 19 1 -17 22872. 22883. 2319. o
10664 1 20 1 17 2200. 4943. 2501. <
10665 1 20 1 -17 2154. 2563. 2136. <
10666 1 21 1 17 1260. 3417. 3051. <
10667 1 21 1 -17 1224. 2014. 2136. <
10668 2 -8 6 -17 19332. 16414. 3970. o
10668 1 22 1 17 19332. 16414. 3970. o
10669 2 -8 6 17 18999. 20625. 3354. o
10669 1 22 1 -17 18999. 20625. 3354. o
10670 1 23 1 17 3256. 5431. 2440. o
10671 1 23 1 -17 3268. 7445. 2194. o
10672 1 24 1 17 612. 2502. 2929. <
10673 1 24 1 -17 607. 3539. 2135. <
10674 1 25 1 17 8479. 5126. 2931. <
10675 1 25 1 -17 8487. 10434. 1767. o
10676 2 -10 7 -17 20681. 16048. 4764. o
10676 1 26 1 17 20681. 16048. 4764. o
10677 2 -10 7 17 21188. 16170. 2694. o
10677 1 26 1 -17 21188. 16170. 2694. o
10678 1 27 1 17 921. 4699. 2989. <
10679 1 27 1 -17 933. 5614. 1767. o
10680 1 28 1 17 1192. 6773. 3049. o
10681 1 28 1 -17 1186. 4760. 1768. o
10682 2 20 -6 -17 19653. 9275. 5011. <
10682 1 -28 2 17 19653. 9275. 5011. <
10683 2 20 -6 17 19970. 15926. 2570. o
10683 1 -28 2 -17 19970. 15926. 2570. o
10684 2 18 -5 -17 3839. 7139. 4392. <
10684 1 -24 2 17 3839. 7139. 4392. <
10685 2 18 -5 17 3895. 11106. 2984. o
10685 1 -24 2 -17 3895. 11106. 2984. o
10686 2 16 -4 -17 128644. 134245. 3359. o
10686 1 -20 2 17 128644. 134245. 3359. o
10687 2 16 -4 17 127489. 124482. 3507. o
10687 1 -20 2 -17 127489. 124482. 3507. o
10688 2 14 -3 -17 74594. 81218. 3376. o
10688 1 -16 2 17 74594. 81218. 3376. o
10689 2 14 -3 17 73735. 60838. 3902. o
10689 1 -16 2 -17 73735. 60838. 3902. o
10690 2 12 -2 -17 8097. 11472. 3231. o
10690 1 -12 2 17 8097. 11472. 3231. o
10691 2 10 -1 -17 53980. 65475. 3733. o
10691 1 -8 2 17 53980. 65475. 3733. o
10692 2 10 -1 17 53201. 63095. 3803. o
10692 1 -8 2 -17 53201. 63095. 3803. o
10693 2 8 0 -17 349865. 347512. 5047. o
10693 1 -4 2 17 349865. 347512. 5047. o
10694 2 8 0 17 351695. 275386. 5907. o
10694 1 -4 2 -17 351695. 275386. 5907. o
10695 1 1 2 17 4172. 4943. 2807. <
10696 1 1 2 -17 4093. 3356. 2868. <
10697 1 2 2 17 110685. 119173. 2901. o
10698 1 2 2 -17 111204. 106664. 3094. o
10699 1 3 2 17 38033. 43142. 2910. o
10700 1 3 2 -17 38480. 36368. 2875. o
10701 2 4 2 -17 345676. 383698. 4402. o
10701 1 4 2 17 345676. 383698. 4402. o
10702 2 4 2 17 346837. 382904. 4446. o
10702 1 4 2 -17 346837. 382904. 4446. o
10703 1 5 2 17 21563. 20991. 2686. o
10704 1 5 2 -17 21546. 15194. 2939. o
10705 1 6 2 17 11787. 14828. 2620. o
10706 1 6 2 -17 11984. 10312. 2748. o
10707 1 7 2 17 2023. 3600. 2623. <
10708 1 7 2 -17 2104. 4393. 2684. <
10709 2 2 3 -17 53797. 51929. 3729. o
10709 1 8 2 17 53797. 51929. 3729. o
10710 2 2 3 17 52873. 46559. 4169. o
10710 1 8 2 -17 52873. 46559. 4169. o
10711 1 9 2 17 19686. 23066. 2555. o
10712 1 9 2 -17 19339. 22883. 2616. o
10713 1 10 2 17 21895. 24835. 2433. o
10714 1 10 2 -17 21702. 23615. 3108. o
10715 1 11 2 17 2487. 4699. 2440. <
10716 1 11 2 -17 2393. -854. 2990. <
10717 1 12 2 17 6666. 11594. 5428. o
10718 1 12 2 -17 6664. 13913. 4877. o
10719 1 13 2 17 1574. 1892. 2746. <
10720 1 13 2 -17 1538. 8482. 4879. <
10721 1 14 2 17 19692. 18916. 2808. o
10722 1 14 2 -17 19565. 17147. 5006. o
10723 1 15 2 17 4006. 4821. 2562. <
10724 1 15 2 -17 3833. 6285. 3477. <
10725 2 -2 5 -17 71379. 81462. 3851. o
10725 1 16 2 17 71379. 81462. 3851. o
10726 2 -2 5 17 70630. 75788. 3756. o
10726 1 16 2 -17 70630. 75788. 3756. o
10727 1 17 2 17 6506. 10679. 2131. o
10728 1 17 2 -17 6369. 8055. 2256. o
10729 1 18 2 17 32248. 31975. 2381. o
10730 1 18 2 -17 32169. 37162. 2360. o
10731 1 19 2 17 7968. 10068. 2133. o
10732 1 19 2 -17 7977. 8543. 2257. o
10733 2 -4 6 -17 119245. 124543. 3614. o
10733 1 20 2 17 119245. 124543. 3614. o
10734 2 -4 6 17 118158. 122407. 3993. o
10734 1 20 2 -17 118158. 122407. 3993. o
10735 1 21 2 17 10177. 8604. 2198. o
10736 1 21 2 -17 10171. 13486. 2375. o
10737 1 22 2 17 15944. 8665. 3180. o
10738 1 22 2 -17 15952. 16781. 2317. o
10739 1 23 2 17 2623. 8604. 3170. o
10740 1 23 2 -17 2562. 7017. 2255. o
10741 2 -6 7 -17 7677. 7261. 4150. <
10741 1 24 2 17 7677. 7261. 4150. <
10742 2 -6 7 17 7719. 9031. 3416. o
10742 1 24 2 -17 7719. 9031. 3416. o
10743 1 25 2 17 685. 1709. 3234. <
10744 1 25 2 -17 690. 7628. 1886. o
10745 1 26 2 17 2982. 6468. 3110. o
10746 1 26 2 -17 2984. 7322. 1766. o
10747 1 27 2 17 7781. 15072. 3288. o
10748 1 27 2 -17 7917. 13058. 1883. o
10749 2 -8 8 -17 16870. 16048. 4882. o
10749 1 28 2 17 16870. 16048. 4882. o
10750 2 -8 8 17 17145. 13364. 2812. o
10750 1 28 2 -17 17145. 13364. 2812. o
10751 2 22 -5 -17 4153. 2929. 4455. <
10751 1 -26 3 17 4153. 2929. 4455. <
10752 2 22 -5 17 4362. 6590. 2378. o
10752 1 -26 3 -17 4362. 6590. 2378. o
10753 2 20 -4 -17 25060. 20015. 3182. o
10753 1 -22 3 17 25060. 20015. 3182. o
10754 2 20 -4 17 24825. 20869. 3241. o
10754 1 -22 3 -17 24825. 20869. 3241. o
10755 2 18 -3 -17 70167. 63095. 3453. o
10755 1 -18 3 17 70167. 63095. 3453. o
10756 2 18 -3 17 70017. 61265. 3521. o
10756 1 -18 3 -17 70017. 61265. 3521. o
10757 2 16 -2 -17 30194. 32585. 3411. o
10757 1 -14 3 17 30194. 32585. 3411. o
10758 2 16 -2 17 30834. 25262. 4646. o
10758 1 -14 3 -17 30834. 25262. 4646. o
10759 2 14 -1 -17 6891. 7017. 3661. <
10759 1 -10 3 17 6891. 7017. 3661. <
10760 2 14 -1 17 6367. 6468. 3966. <
10760 1 -10 3 -17 6367. 6468. 3966. <
10761 2 12 0 -17 15011. 12326. 3542. o
10761 1 -6 3 17 15011. 12326. 3542. o
10762 2 12 0 17 15032. 12326. 4030. o
10762 1 -6 3 -17 15032. 12326. 4030. o
10763 2 10 1 -17 45959. 62973. 3900. o
10763 1 -2 3 17 45959. 62973. 3900. o
10764 2 10 1 17 46546. 38992. 3805. o
10764 1 -2 3 -17 46546. 38992. 3805. o
10765 1 1 3 17 7032. 9397. 2683. o
10766 1 1 3 -17 6684. 1526. 2687. <
10767 2 8 2 -17 47193. 56627. 4240. o
10767 1 2 3 17 47193. 56627. 4240. o
10768 2 8 2 17 47928. 44423. 4342. o
10768 1 2 3 -17 47928. 44423. 4342. o
10769 1 3 3 17 16104. 16476. 2623. o
10770 1 3 3 -17 16585. 18733. 2681. o
10771 1 4 3 17 20901. 22028. 2682. o
10772 1 4 3 -17 20824. 19038. 2871. o
10773 1 5 3 17 51525. 43996. 2780. o
10774 1 5 3 -17 51243. 46986. 2826. o
10775 2 6 3 -17 16981. 17086. 3722. o
10775 1 6 3 17 16981. 17086. 3722. o
10776 2 6 3 17 17002. 15011. 4334. o
10776 1 6 3 -17 17002. 15011. 4334. o
10777 1 7 3 17 5855. 6468. 2562. o
10778 1 7 3 -17 5742. 11228. 2680. o
10779 1 8 3 17 1251. 5553. 2683. o
10780 1 8 3 -17 1246. 1526. 2624. <
10781 1 9 3 17 18435. 18855. 2562. o
10782 1 9 3 -17 17949. 21052. 2801. o
10783 2 4 4 -17 14010. 18245. 3656. o
10783 1 10 3 17 14010. 18245. 3656. o
10784 2 4 4 17 13842. 16232. 4147. o
10784 1 10 3 -17 13842. 16232. 4147. o
10785 1 11 3 17 30653. 28680. 2812. o
10786 1 11 3 -17 31140. 25995. 3124. o
10787 1 12 3 17 871. 854. 2807. <
10788 1 12 3 -17 894. 4943. 2561. <
10789 1 13 3 17 1027. 3600. 2379. <
10790 1 13 3 -17 990. 2746. 3539. <
10791 2 2 5 -17 15201. 15255. 3966. o
10791 1 14 3 17 15201. 15255. 3966. o
10792 2 2 5 17 15686. 9580. 5495. <
10792 1 14 3 -17 15686. 9580. 5495. <
10793 1 15 3 17 4115. 6346. 2562. o
10794 1 15 3 -17 4265. 4210. 2807. <
10795 1 16 3 17 3203. 1526. 3478. <
10796 1 16 3 -17 3164. 4393. 2745. <
10797 1 17 3 17 274. 2319. 2624. <
10798 1 17 3 -17 284. 2685. 2623. <
10799 1 18 3 17 57800. 56566. 3666. o
10800 1 18 3 -17 57610. 66085. 3807. o
10801 1 19 3 17 24744. 24408. 2808. o
10802 1 19 3 -17 24764. 25751. 2499. o
10803 1 20 3 17 8732. 9702. 2745. o
10804 1 20 3 -17 8662. 8299. 2502. o
10805 1 21 3 17 5115. 6407. 2745. o
10806 1 21 3 -17 5137. 11716. 2373. o
10807 2 -2 7 -17 21834. 23432. 5307. o
10807 1 22 3 17 21834. 23432. 5307. o
10808 2 -2 7 17 21600. 20625. 3175. o
10808 1 22 3 -17 21600. 20625. 3175. o
10809 1 23 3 17 140. 2136. 3478. <
10810 1 23 3 -17 122. 3417. 2196. <
10811 1 24 3 17 5810. 2685. 3296. <
10812 1 24 3 -17 5805. 9153. 2132. o
10813 1 25 3 17 4684. 3722. 3478. <
10814 1 25 3 -17 4700. 9519. 1825. o
10815 2 -4 8 -17 8575. 732. 5249. <
10815 1 26 3 17 8575. 732. 5249. <
10816 2 -4 8 17 8800. 10496. 2622. o
10816 1 26 3 -17 8800. 10496. 2622. o
10817 1 27 3 17 9423. 10496. 3233. o
10818 1 27 3 -17 9529. 11167. 1767. o
10819 2 24 -4 -17 9625. 7750. 4944. <
10819 1 -24 4 17 9625. 7750. 4944. <
10820 2 24 -4 17 9766. 12509. 3354. o
10820 1 -24 4 -17 9766. 12509. 3354. o
10821 2 22 -3 -17 21840. 14767. 5132. o
10821 1 -20 4 17 21840. 14767. 5132. o
10822 2 22 -3 17 21793. 19466. 3299. o
10822 1 -20 4 -17 21793. 19466. 3299. o
10823 2 20 -2 -17 106459. 108007. 3772. o
10823 1 -16 4 17 106459. 108007. 3772. o
10824 2 20 -2 17 107330. 108556. 3774. o
10824 1 -16 4 -17 107330. 108556. 3774. o
10825 2 18 -1 -17 1611. 4393. 3538. <
10825 1 -12 4 17 1611. 4393. 3538. <
10826 2 18 -1 17 1591. 6102. 5064. <
10826 1 -12 4 -17 1591. 6102. 5064. <
10827 2 16 0 -17 140494. 137479. 4601. o
10827 1 -8 4 17 140494. 137479. 4601. o
10828 2 16 0 17 140118. 148646. 4504. o
10828 1 -8 4 -17 140118. 148646. 4504. o
10829 2 14 1 -17 62796. 60288. 4403. o
10829 1 -4 4 17 62796. 60288. 4403. o
10830 2 14 1 17 61762. 56505. 4594. o
10830 1 -4 4 -17 61762. 56505. 4594. o
10831 1 1 4 17 1061. 3600. 2745. <
10832 1 1 4 -17 1054. 4149. 2806. <
10833 1 2 4 17 24847. 22822. 2872. o
10834 1 2 4 -17 24786. 24103. 3052. o
10835 1 3 4 17 26722. 25018. 2811. o
10836 1 3 4 -17 26016. 24591. 2871. o
10837 2 10 3 -17 58012. 64560. 4123. o
10837 1 4 4 17 58012. 64560. 4123. o
10838 2 10 3 17 57225. 68221. 4658. o
10838 1 4 4 -17 57225. 68221. 4658. o
10839 1 5 4 17 10347. 8909. 2808. o
10840 1 5 4 -17 9915. 12936. 2804. o
10841 1 6 4 17 6354. 5614. 2929. <
10842 1 6 4 -17 6339. 9885. 3476. o
10843 1 7 4 17 30048. 29168. 3175. o
10844 1 7 4 -17 29723. 25446. 3304. o
10845 2 8 4 -17 137770. 153040. 6127. o
10845 1 8 4 17 137770. 153040. 6127. o
10846 2 8 4 17 137653. 121553. 5171. o
10846 1 8 4 -17 137653. 121553. 5171. o
10847 1 9 4 17 63377. 68648. 2773. o
10848 1 9 4 -17 63613. 58946. 3015. o
10849 1 10 4 17 28686. 30327. 2680. o
10850 1 10 4 -17 28575. 28192. 3540. o
10851 1 11 4 17 3056. 7811. 2560. o
10852 1 11 4 -17 3114. 5553. 3355. <
10853 2 6 5 -17 8779. 11838. 3842. o
10853 1 12 4 17 8779. 11838. 3842. o
10854 2 6 5 17 8732. 11716. 4147. o
10854 1 12 4 -17 8732. 11716. 4147. o
10855 1 13 4 17 6201. 5187. 2991. <
10856 1 13 4 -17 6199. 6773. 3173. o
10857 1 14 4 17 3196. 6956. 3415. o
10858 1 14 4 -17 3245. 4271. 2868. <
10859 1 15 4 17 48498. 47840. 3786. o
10860 1 15 4 -17 48665. 43813. 3192. o
10861 2 4 6 -17 91531. 86893. 5329. o
10861 1 16 4 17 91531. 86893. 5329. o
10862 2 4 6 17 92112. 74811. 4597. o
10862 1 16 4 -17 92112. 74811. 4597. o
10863 1 17 4 17 28160. 28497. 2745. o
10864 1 17 4 -17 28277. 26056. 2630. o
10865 1 18 4 17 620. 3356. 3295. <
10866 1 18 4 -17 631. 3600. 2562. <
10867 1 19 4 17 4861. 8909. 3781. o
10868 1 19 4 -17 4840. 7567. 2500. o
10869 2 2 7 -17 17786. 16232. 5676. o
10869 1 20 4 17 17786. 16232. 5676. o
10870 2 2 7 17 17707. 14035. 4092. o
10870 1 20 4 -17 17707. 14035. 4092. o
10871 1 21 4 17 12875. 10252. 2810. o
10872 1 21 4 -17 12572. 12021. 2137. o
10873 1 22 4 17 2439. 3478. 3661. <
10874 1 22 4 -17 2498. 6712. 2133. o
10875 1 23 4 17 6242. 5797. 3661. <
10876 1 23 4 -17 6287. 10740. 2314. o
10877 1 24 4 17 7892. 10068. 5186. <
10878 1 24 4 -17 8072. 12082. 3231. o
10879 1 25 4 17 7624. 12387. 3535. o
10880 1 25 4 -17 7646. 9336. 2317. o
10881 2 26 -3 -17 4519. 14096. 5181. o
10881 1 -22 5 17 4519. 14096. 5181. o
10882 2 26 -3 17 4539. 6224. 3538. <
10882 1 -22 5 -17 4539. 6224. 3538. <
10883 2 24 -2 -17 3037. 1281. 3417. <
10883 1 -18 5 17 3037. 1281. 3417. <
10884 2 24 -2 17 2935. 7506. 3354. o
10884 1 -18 5 -17 2935. 7506. 3354. o
10885 2 22 -1 -17 2648. 2990. 3539. <
10885 1 -14 5 17 2648. 2990. 3539. <
10886 2 22 -1 17 2715. -305. 4943. <
10886 1 -14 5 -17 2715. -305. 4943. <
10887 2 20 0 -17 31217. 26727. 5742. o
10887 1 -10 5 17 31217. 26727. 5742. o
10888 2 20 0 17 31124. 32524. 5307. o
10888 1 -10 5 -17 31124. 32524. 5307. o
10889 2 18 1 -17 37451. 23188. 5876. o
10889 1 -6 5 17 37451. 23188. 5876. o
10890 2 18 1 17 37528. 33378. 4341. o
10890 1 -6 5 -17 37528. 33378. 4341. o
10891 2 16 2 -17 15700. 20442. 3777. o
10891 1 -2 5 17 15700. 20442. 3777. o
10892 2 16 2 17 15827. 15926. 3783. o
10892 1 -2 5 -17 15827. 15926. 3783. o
10893 1 1 5 17 47752. 44972. 2941. o
10894 1 1 5 -17 48431. 44118. 3190. o
10895 2 14 3 -17 3951. 6468. 3904. <
10895 1 2 5 17 3951. 6468. 3904. <
10896 2 14 3 17 3813. 10740. 3840. o
10896 1 2 5 -17 3813. 10740. 3840. o
10897 1 3 5 17 4110. 6041. 2745. o
10898 1 3 5 -17 3855. 6956. 2805. o
10899 1 4 5 17 3367. 6773. 2805. o
10900 1 4 5 -17 3458. 4943. 2745. <
10901 1 5 5 17 2210. 1526. 3234. <
10902 1 5 5 -17 2141. 6346. 2988. o
10903 2 12 4 -17 36894. 37772. 3720. o
10903 1 6 5 17 36894. 37772. 3720. o
10904 2 12 4 17 36964. 29961. 4529. o
10904 1 6 5 -17 36964. 29961. 4529. o
10905 1 7 5 17 19610. 20869. 3354. o
10906 1 7 5 -17 19622. 15865. 2935. o
10907 1 8 5 17 15242. 16781. 3415. o
10908 1 8 5 -17 15029. 13242. 2931. o
10909 1 9 5 17 34712. 28497. 3250. o
10910 1 9 5 -17 35084. 30754. 3611. o
10911 2 10 5 -17 30879. 31487. 4942. o
10911 1 10 5 17 30879. 31487. 4942. o
10912 2 10 5 17 30779. 28070. 4337. o
10912 1 10 5 -17 30779. 28070. 4337. o
10913 1 11 5 17 10134. 4271. 3603. <
10914 1 11 5 -17 9733. 9885. 3173. o
10915 1 12 5 17 5196. 1526. 2503. <
10916 1 12 5 -17 5087. 7139. 3172. o
10917 1 13 5 17 3232. 6163. 2622. o
10918 1 13 5 -17 3194. 3722. 3356. <
10919 2 8 6 -17 6740. 5797. 5431. <
10919 1 14 5 17 6740. 5797. 5431. <
10920 2 8 6 17 6737. 13730. 4389. o
10920 1 14 5 -17 6737. 13730. 4389. o
10921 1 15 5 17 32643. 32219. 5493. o
10922 1 15 5 -17 32815. 23432. 3012. o
10923 1 16 5 17 2253. 3600. 3600. <
10924 1 16 5 -17 2282. 3417. 3112. <
10925 1 17 5 17 11374. 9702. 3418. o
10926 1 17 5 -17 11153. 16598. 3105. o
10927 2 6 7 -17 6613. 2807. 5798. <
10927 1 18 5 17 6613. 2807. 5798. <
10928 2 6 7 17 6525. 6651. 5553. <
10928 1 18 5 -17 6525. 6651. 5553. <
10929 1 19 5 17 3448. 9885. 2986. o
10930 1 19 5 -17 3490. 6163. 2684. o
10931 1 20 5 17 3920. 6712. 2866. o
10932 1 20 5 -17 3953. 6651. 2867. o
10933 1 21 5 17 8564. 7078. 3845. <
10934 1 21 5 -17 8269. 13852. 3167. o
10935 2 4 8 -17 8993. 12814. 5856. o
10935 1 22 5 17 8993. 12814. 5856. o
10936 2 4 8 17 9062. 12692. 4269. o
10936 1 22 5 -17 9062. 12692. 4269. o
10937 1 23 5 17 4032. 6468. 3843. <
10938 1 23 5 -17 4134. 8665. 2315. o
10939 2 28 -2 -17 17912. 13302. 4885. o
10939 1 -20 6 17 17912. 13302. 4885. o
10940 2 28 -2 17 17623. 15377. 3359. o
10940 1 -20 6 -17 17623. 15377. 3359. o
10941 2 26 -1 -17 16750. 17086. 3478. o
10941 1 -16 6 17 16750. 17086. 3478. o
10942 2 26 -1 17 16490. 18428. 3414. o
10942 1 -16 6 -17 16490. 18428. 3414. o
10943 2 24 0 -17 13309. 12936. 3723. o
10943 1 -12 6 17 13309. 12936. 3723. o
10944 2 24 0 17 13412. 17574. 4878. o
10944 1 -12 6 -17 13412. 17574. 4878. o
10945 2 22 1 -17 33859. 37100. 3897. o
10945 1 -8 6 17 33859. 37100. 3897. o
10946 2 22 1 17 33925. 34660. 3904. o
10946 1 -8 6 -17 33925. 34660. 3904. o
10947 2 20 2 -17 62883. 67306. 6640. o
10947 1 -4 6 17 62883. 67306. 6640. o
10948 2 20 2 17 63436. 77984. 6547. o
10948 1 -4 6 -17 63436. 77984. 6547. o
10949 1 1 6 17 24737. 21479. 4337. o
10950 1 1 6 -17 24995. 23859. 2932. o
10951 1 2 6 17 1340. 1526. 4149. <
10952 1 2 6 -17 1407. 5736. 2988. <
10953 1 3 6 17 81947. 61997. 4896. o
10954 1 3 6 -17 82192. 76337. 3876. o
10955 2 16 4 -17 57348. 53942. 6293. o
10955 1 4 6 17 57348. 53942. 6293. o
10956 2 16 4 17 57545. 48267. 4908. o
10956 1 4 6 -17 57545. 48267. 4908. o
10957 1 5 6 17 28396. 16414. 4408. o
10958 1 5 6 -17 28330. 25934. 3788. o
10959 1 6 6 17 5462. 4393. 2868. <
10960 1 6 6 -17 5591. 5553. 3600. <
10961 1 7 6 17 3769. 7872. 2682. o
10962 1 7 6 -17 3762. 8421. 2865. o
10963 2 14 5 -17 31244. 25995. 4037. o
10963 1 8 6 17 31244. 25995. 4037. o
10964 2 14 5 17 31240. 11960. 5023. o
10964 1 8 6 -17 31240. 11960. 5023. o
10965 1 9 6 17 13352. 14340. 3233. o
10966 1 9 6 -17 12844. 12936. 3539. o
10967 1 10 6 17 15201. 17330. 3109. o
10968 1 10 6 -17 15425. 15133. 4272. o
10969 1 11 6 17 3874. 6041. 2623. o
10970 1 11 6 -17 3790. 8482. 4392. <
10971 2 12 6 -17 15947. 14706. 4883. o
10971 1 12 6 17 15947. 14706. 4883. o
10972 2 12 6 17 16022. 14401. 4578. o
10972 1 12 6 -17 16022. 14401. 4578. o
10973 1 13 6 17 517. 2685. 3051. <
10974 1 13 6 -17 495. 6712. 3354. <
10975 1 14 6 17 1753. 6773. 2499. o
10976 1 14 6 -17 1752. 7628. 4208. <
10977 1 15 6 17 9265. 15560. 2921. o
10978 1 15 6 -17 8921. 11655. 3354. o
10979 2 10 7 17 12232. 14401. 3537. o
10979 1 16 6 -17 12232. 14401. 3537. o
10980 1 17 6 17 9672. 10679. 3599. o
10981 1 17 6 -17 9376. 12143. 2499. o
10982 1 18 6 17 1018. 4027. 3050. <
10983 1 18 6 -17 1030. 6529. 2866. o
10984 1 19 6 17 7435. 11289. 2803. o
10985 1 19 6 -17 7534. 10374. 2804. o
10986 2 8 8 -17 14544. 12082. 5188. o
10986 1 20 6 17 14544. 12082. 5188. o
10987 2 8 8 17 14320. 12631. 3480. o
10987 1 20 6 -17 14320. 12631. 3480. o
10988 2 28 0 -17 15872. 18794. 4268. o
10988 1 -14 7 17 15872. 18794. 4268. o
10989 2 28 0 17 15956. 12204. 6226. <
10989 1 -14 7 -17 15956. 12204. 6226. <
10990 2 26 1 -17 5105. 6224. 4027. <
10990 1 -10 7 17 5105. 6224. 4027. <
10991 2 26 1 17 5045. 5614. 3783. <
10991 1 -10 7 -17 5045. 5614. 3783. <
10992 2 24 2 -17 20735. 6468. 7511. <
10992 1 -6 7 17 20735. 6468. 7511. <
10993 2 24 2 17 20698. 15194. 4094. o
10993 1 -6 7 -17 20698. 15194. 4094. o
10994 2 22 3 -17 6803. 7567. 4088. <
10994 1 -2 7 17 6803. 7567. 4088. <
10995 2 22 3 17 6750. 8848. 3965. o
10995 1 -2 7 -17 6750. 8848. 3965. o
10996 1 1 7 17 9688. 6468. 3663. <
10997 1 1 7 -17 9492. 7872. 3479. o
10998 2 20 4 -17 5975. 6712. 4271. <
10998 1 2 7 17 5975. 6712. 4271. <
10999 2 20 4 17 5889. 10007. 4208. o
10999 1 2 7 -17 5889. 10007. 4208. o
11000 1 3 7 17 34320. 28802. 3005. o
11001 1 3 7 -17 34624. 26727. 3132. o
11002 1 4 7 17 16397. 15987. 2930. o
11003 1 4 7 -17 16192. 18550. 3292. o
11004 1 5 7 17 7215. 6346. 3601. <
11005 1 5 7 -17 7089. 9702. 3232. o
11006 2 18 5 -17 20484. 14767. 4156. o
11006 1 6 7 17 20484. 14767. 4156. o
11007 2 18 5 17 20476. 17208. 4702. o
11007 1 6 7 -17 20476. 17208. 4702. o
11008 1 7 7 17 5568. 7078. 3538. <
11009 1 7 7 -17 5484. 10129. 3048. o
11010 1 8 7 17 13031. 11655. 3235. o
11011 1 8 7 -17 13014. 12814. 3661. o
11012 1 9 7 17 8276. 9824. 3477. o
11013 1 9 7 -17 7956. 12387. 3780. o
11014 2 16 6 -17 3204. 5980. 3782. <
11014 1 10 7 17 3204. 5980. 3782. <
11015 2 16 6 17 3287. 3600. 4760. <
11015 1 10 7 -17 3287. 3600. 4760. <
11016 1 11 7 17 12914. 11960. 3723. o
11017 1 11 7 -17 13241. 12265. 3052. o
11018 1 12 7 17 2208. 4088. 3844. <
11019 1 12 7 -17 2263. 4882. 3233. <
11020 1 13 7 17 4562. 6651. 3904. <
11021 1 13 7 -17 4633. 8726. 2865. o
11022 2 14 7 17 5132. 5065. 5431. <
11022 1 14 7 -17 5132. 5065. 5431. <
11023 1 15 7 17 532. 4393. 4210. <
11024 1 15 7 -17 622. 4821. 3843. <
11025 2 26 3 -17 25044. 12875. 4284. o
11025 1 -4 8 17 25044. 12875. 4284. o
11026 2 26 3 17 24992. 25202. 4210. o
11026 1 -4 8 -17 24992. 25202. 4210. o
11027 1 1 8 17 2198. 6407. 3049. o
11028 1 1 8 -17 2094. 6163. 3110. <
11029 1 2 8 17 9689. 11106. 3721. o
11030 1 2 8 -17 9603. 12875. 3109. o
11031 1 3 8 17 11573. 8543. 3663. o
11032 1 3 8 -17 11251. 11899. 3233. o
11033 2 22 5 -17 25103. 21052. 4948. o
11033 1 4 8 17 25103. 21052. 4948. o
11034 2 22 5 17 25084. 25812. 8786. o
11034 1 4 8 -17 25084. 25812. 8786. o
11035 1 5 8 17 2042. 5187. 3721. <
11036 1 5 8 -17 1954. 5980. 3782. <
11037 1 6 8 17 1186. 3661. 3844. <
11038 1 6 8 -17 1160. 7567. 3231. o
11039 1 7 8 17 8824. 10618. 4209. o
11040 1 7 8 -17 8830. 9763. 5674. <
11041 2 0 0 -18 4791. 3966. 4943. <
11041 1 0 0 18 4791. 3966. 4943. <
11042 2 0 0 18 4099. 10068. 4879. o
11042 1 0 0 -18 4099. 10068. 4879. o
11043 1 2 0 18 32199. 41311. 3451. o
11044 1 2 0 -18 32235. 35148. 3593. o
11045 2 -2 1 -18 35011. 38321. 3713. o
11045 1 4 0 18 35011. 38321. 3713. o
11046 2 -2 1 18 35070. 32890. 3667. o
11046 1 4 0 -18 35070. 32890. 3667. o
11047 1 6 0 18 25831. 22090. 3607. o
11048 1 6 0 -18 25754. 21479. 3425. o
11049 2 -4 2 -18 40383. 26117. 3572. o
11049 1 8 0 18 40383. 26117. 3572. o
11050 2 -4 2 18 39977. 25385. 3572. o
11050 1 8 0 -18 39977. 25385. 3572. o
11051 1 10 0 18 10870. 7567. 4517. <
11052 1 10 0 -18 10847. 12997. 3476. o
11053 2 -6 3 -18 280599. 324264. 5547. o
11053 1 12 0 18 280599. 324264. 5547. o
11054 2 -6 3 18 284417. 280390. 4402. o
11054 1 12 0 -18 284417. 280390. 4402. o
11055 1 14 0 18 82310. 84880. 3523. o
11056 1 14 0 -18 82164. 81829. 4883. o
11057 2 -8 4 -18 43273. 42531. 3176. o
11057 1 16 0 18 43273. 42531. 3176. o
11058 2 -8 4 18 43464. 40274. 4645. o
11058 1 16 0 -18 43464. 40274. 4645. o
11059 1 18 0 18 2038. 7872. 3048. o
11060 1 18 0 -18 2098. 3966. 3112. <
11061 2 -10 5 -18 14726. 12204. 2932. o
11061 1 20 0 18 14726. 12204. 2932. o
11062 2 -10 5 18 14498. 15011. 3172. o
11062 1 20 0 -18 14498. 15011. 3172. o
11063 1 22 0 18 19938. 21052. 4514. o
11064 1 22 0 -18 20014. 17757. 4335. o
11065 2 -12 6 -18 33620. 19649. 4839. o
11065 1 24 0 18 33620. 19649. 4839. o
11066 2 -12 6 18 34389. 31853. 4642. o
11066 1 24 0 -18 34389. 31853. 4642. o
11067 1 26 0 18 23438. 11411. 4344. o
11068 1 26 0 -18 23218. 12570. 2520. o
11069 2 16 -6 -18 5167. 10923. 4390. o
11069 1 -26 1 18 5167. 10923. 4390. o
11070 2 16 -6 18 5280. 11289. 3046. o
11070 1 -26 1 -18 5280. 11289. 3046. o
11071 2 14 -5 -18 7492. 8421. 4454. <
11071 1 -22 1 18 7492. 8421. 4454. <
11072 2 14 -5 18 7378. 6468. 2869. o
11072 1 -22 1 -18 7378. 6468. 2869. o
11073 2 12 -4 -18 157305. 157433. 3660. o
11073 1 -18 1 18 157305. 157433. 3660. o
11074 2 12 -4 18 155629. 141995. 5169. o
11074 1 -18 1 -18 155629. 141995. 5169. o
11075 2 10 -3 -18 32631. 29778. 3302. o
11075 1 -14 1 18 32631. 29778. 3302. o
11076 2 10 -3 18 33186. 29473. 4888. o
11076 1 -14 1 -18 33186. 29473. 4888. o
11077 2 8 -2 -18 23820. 22578. 3419. o
11077 1 -10 1 18 23820. 22578. 3419. o
11078 2 8 -2 18 23633. 25995. 3413. o
11078 1 -10 1 -18 23633. 25995. 3413. o
11079 2 6 -1 -18 435059. 372470. 5885. o
11079 1 -6 1 18 435059. 372470. 5885. o
11080 2 6 -1 18 433905. 320236. 6531. o
11080 1 -6 1 -18 433905. 320236. 6531. o
11081 2 4 0 -18 38354. 45643. 3700. o
11081 1 -2 1 18 38354. 45643. 3700. o
11082 2 4 0 18 38357. 38931. 3721. o
11082 1 -2 1 -18 38357. 38931. 3721. o
11083 1 0 1 18 23906. 29534. 3772. o
11084 1 0 1 -18 24069. 29717. 3895. o
11085 1 1 1 18 38827. 46742. 2588. o
11086 1 1 1 -18 38871. 41677. 2674. o
11087 2 2 1 -18 39257. 42776. 3834. o
11087 1 2 1 18 39257. 42776. 3834. o
11088 2 2 1 18 39270. 39419. 3966. o
11088 1 2 1 -18 39270. 39419. 3966. o
11089 1 3 1 18 54045. 60471. 2647. o
11090 1 3 1 -18 54161. 53271. 2811. o
11091 1 4 1 18 1445. 2990. 2562. <
11092 1 4 1 -18 1489. 4943. 2623. <
11093 1 5 1 18 24225. 21357. 2630. o
11094 1 5 1 -18 24122. 23310. 2748. o
11095 2 0 2 -18 410131. 440996. 4308. o
11095 1 6 1 18 410131. 440996. 4308. o
11096 2 0 2 18 407602. 392363. 5432. o
11096 1 6 1 -18 407602. 392363. 5432. o
11097 1 7 1 18 11801. 8177. 2505. o
11098 1 7 1 -18 11969. 8726. 3054. o
11099 1 8 1 18 9147. 4455. 2505. <
11100 1 8 1 -18 9165. 9397. 2990. o
11101 1 9 1 18 11282. 15194. 2435. o
11102 1 9 1 -18 11199. 10923. 2441. o
11103 2 -2 3 -18 34027. 38321. 3405. o
11103 1 10 1 18 34027. 38321. 3405. o
11104 2 -2 3 18 33793. 29168. 3611. o
11104 1 10 1 -18 33793. 29168. 3611. o
11105 1 11 1 18 22223. 26605. 2735. o
11106 1 11 1 -18 22332. 17330. 3059. o
11107 1 12 1 18 4136. 8421. 3232. o
11108 1 12 1 -18 4161. 8787. 2804. o
11109 1 13 1 18 5178. 7994. 2561. o
11110 1 13 1 -18 5208. 2197. 2686. <
11111 2 -4 4 -18 31009. 38443. 4867. o
11111 1 14 1 18 31009. 38443. 4867. o
11112 2 -4 4 18 31487. 32585. 3414. o
11112 1 14 1 -18 31487. 32585. 3414. o
11113 1 15 1 18 31992. 32463. 2683. o
11114 1 15 1 -18 32001. 33378. 2375. o
11115 1 16 1 18 11980. 11228. 2259. o
11116 1 16 1 -18 11944. 15743. 2251. o
11117 1 17 1 18 2593. 2746. 2197. <
11118 1 17 1 -18 2525. -1281. 2563. <
11119 2 -6 5 -18 169494. 170858. 3644. o
11119 1 18 1 18 169494. 170858. 3644. o
11120 2 -6 5 18 168190. 174580. 3954. o
11120 1 18 1 -18 168190. 174580. 3954. o
11121 1 19 1 18 25076. 22761. 2203. o
11122 1 19 1 -18 24874. 26788. 2619. o
11123 1 20 1 18 126. 244. 2075. <
11124 1 20 1 -18 120. 732. 2502. <
11125 1 21 1 18 2657. 1281. 2929. <
11126 1 21 1 -18 2641. 1587. 2258. <
11127 2 -8 6 -18 5004. 61. 4455. <
11127 1 22 1 18 5004. 61. 4455. <
11128 2 -8 6 18 4885. 7139. 3233. o
11128 1 22 1 -18 4885. 7139. 3233. o
11129 1 23 1 18 206. 5126. 2378. o
11130 1 23 1 -18 211. 9824. 2495. o
11131 1 24 1 18 586. 3417. 3172. <
11132 1 24 1 -18 588. 6407. 2499. o
11133 1 25 1 18 41. 2807. 3051. <
11134 1 25 1 -18 41. 2685. 2013. <
11135 2 -10 7 -18 4140. 11411. 4939. o
11135 1 26 1 18 4140. 11411. 4939. o
11136 2 -10 7 18 4237. 7506. 2683. o
11136 1 26 1 -18 4237. 7506. 2683. o
11137 1 27 1 18 5476. 10129. 3170. o
11138 1 27 1 -18 5443. 9641. 1887. o
11139 2 18 -5 -18 71166. 56688. 4990. o
11139 1 -24 2 18 71166. 56688. 4990. o
11140 2 18 -5 18 72289. 62302. 3408. o
11140 1 -24 2 -18 72289. 62302. 3408. o
11141 2 16 -4 -18 4236. 2990. 3051. <
11141 1 -20 2 18 4236. 2990. 3051. <
11142 2 16 -4 18 4219. 7078. 3050. o
11142 1 -20 2 -18 4219. 7078. 3050. o
11143 2 14 -3 -18 43250. 38382. 5197. o
11143 1 -16 2 18 43250. 38382. 5197. o
11144 2 12 -2 -18 5898. 4943. 3906. <
11144 1 -12 2 18 5898. 4943. 3906. <
11145 2 12 -2 18 5670. 8543. 5674. <
11145 1 -12 2 -18 5670. 8543. 5674. <
11146 2 10 -1 -18 12174. 12570. 3600. o
11146 1 -8 2 18 12174. 12570. 3600. o
11147 2 10 -1 18 12100. 14584. 3598. o
11147 1 -8 2 -18 12100. 14584. 3598. o
11148 2 8 0 -18 25987. 28375. 3718. o
11148 1 -4 2 18 25987. 28375. 3718. o
11149 2 8 0 18 26213. 21235. 3791. o
11149 1 -4 2 -18 26213. 21235. 3791. o
11150 2 6 1 -18 312341. 355750. 4066. o
11150 1 0 2 18 312341. 355750. 4066. o
11151 2 6 1 18 317594. 315355. 4920. o
11151 1 0 2 -18 317594. 315355. 4920. o
11152 1 1 2 18 56900. 61387. 2843. o
11153 1 1 2 -18 57276. 60410. 2851. o
11154 1 2 2 18 34001. 38626. 2852. o
11155 1 2 2 -18 33784. 33928. 2929. o
11156 1 3 2 18 19358. 21784. 2680. o
11157 1 3 2 -18 19363. 18977. 2808. o
11158 2 4 2 -18 22201. 23249. 3843. o
11158 1 4 2 18 22201. 23249. 3843. o
11159 2 4 2 18 22316. 19832. 3848. o
11159 1 4 2 -18 22316. 19832. 3848. o
11160 1 5 2 18 6018. 7200. 2745. o
11161 1 5 2 -18 5993. 10801. 2681. o
11162 1 6 2 18 7363. 9580. 2561. o
11163 1 6 2 -18 7351. 6895. 2746. o
11164 1 7 2 18 5741. 5248. 2563. o
11165 1 7 2 -18 5689. 10190. 2681. o
11166 2 2 3 -18 19221. 24469. 3897. o
11166 1 8 2 18 19221. 24469. 3897. o
11167 2 2 3 18 19079. 21906. 3779. o
11167 1 8 2 -18 19079. 21906. 3779. o
11168 1 9 2 18 8443. 10068. 2500. o
11169 1 9 2 -18 8408. 8787. 2624. o
11170 1 10 2 18 6756. 2075. 2931. <
11171 1 10 2 -18 6750. 4882. 2564. <
11172 1 11 2 18 1271. 4882. 3416. <
11173 1 11 2 -18 1380. 976. 2868. <
11174 2 0 4 -18 7526. 17940. 3467. o
11174 1 12 2 18 7526. 17940. 3467. o
11175 2 0 4 18 7452. 488. 4883. <
11175 1 12 2 -18 7452. 488. 4883. <
11176 1 13 2 18 5877. 9580. 2376. o
11177 1 13 2 -18 5663. 6529. 2928. o
11178 1 14 2 18 70540. 74628. 2902. o
11179 1 14 2 -18 70644. 67306. 2889. o
11180 1 15 2 18 2367. 5492. 2500. o
11181 1 15 2 -18 2407. 854. 3478. <
11182 2 -2 5 -18 42016. 41189. 3603. o
11182 1 16 2 18 42016. 41189. 3603. o
11183 2 -2 5 18 42379. 39236. 3427. o
11183 1 16 2 -18 42379. 39236. 3427. o
11184 1 17 2 18 7040. 5919. 3235. <
11185 1 17 2 -18 7017. 6468. 2502. o
11186 1 18 2 18 6515. 2258. 3235. <
11187 1 18 2 -18 6468. 5126. 2564. <
11188 1 19 2 18 2191. 1587. 2502. <
11189 1 19 2 -18 2170. 4149. 2501. <
11190 2 -4 6 -18 3674. 6224. 4576. <
11190 1 20 2 18 3674. 6224. 4576. <
11191 2 -4 6 18 3654. 1831. 4943. <
11191 1 20 2 -18 3654. 1831. 4943. <
11192 1 21 2 18 494. 915. 2502. <
11193 1 21 2 -18 510. 2807. 2318. <
11194 1 22 2 18 924. 5736. 2255. o
11195 1 22 2 -18 934. 5431. 2256. o
11196 1 23 2 18 8663. 10068. 2378. o
11197 1 23 2 -18 8669. 18977. 2300. o
11198 2 -6 7 -18 67376. 48633. 5239. o
11198 1 24 2 18 67376. 48633. 5239. o
11199 2 -6 7 18 68462. 70235. 3530. o
11199 1 24 2 -18 68462. 70235. 3530. o
11200 1 25 2 18 18687. 11472. 3303. o
11201 1 25 2 -18 18903. 15621. 2386. o
11202 1 26 2 18 19762. 12875. 3486. o
11203 1 26 2 -18 19903. 21357. 1887. o
11204 1 27 2 18 4147. 9031. 3414. o
11205 1 27 2 -18 4197. 10557. 1823. o
11206 2 20 -4 -18 2281. -1037. 4882. <
11206 1 -22 3 18 2281. -1037. 4882. <
11207 2 20 -4 18 2270. 5858. 3050. <
11207 1 -22 3 -18 2270. 5858. 3050. <
11208 2 18 -3 -18 118236. 109959. 6143. o
11208 1 -18 3 18 118236. 109959. 6143. o
11209 2 18 -3 18 117656. 105749. 3934. o
11209 1 -18 3 -18 117656. 105749. 3934. o
11210 2 16 -2 -18 28779. 25507. 3424. o
11210 1 -14 3 18 28779. 25507. 3424. o
11211 2 16 -2 18 28663. 31670. 5426. o
11211 1 -14 3 -18 28663. 31670. 5426. o
11212 2 14 -1 -18 18713. 18306. 3479. o
11212 1 -10 3 18 18713. 18306. 3479. o
11213 2 14 -1 18 18403. 14035. 5617. o
11213 1 -10 3 -18 18403. 14035. 5617. o
11214 2 12 0 -18 315371. 259460. 5511. o
11214 1 -6 3 18 315371. 259460. 5511. o
11215 2 12 0 18 314332. 275813. 5401. o
11215 1 -6 3 -18 314332. 275813. 5401. o
11216 2 10 1 -18 59415. 63950. 4192. o
11216 1 -2 3 18 59415. 63950. 4192. o
11217 2 10 1 18 59564. 55651. 4103. o
11217 1 -2 3 -18 59564. 55651. 4103. o
11218 1 0 3 18 693. 1281. 3783. <
11219 1 0 3 -18 736. -1892. 3783. <
11220 1 1 3 18 23331. 21845. 2749. o
11221 1 1 3 -18 23480. 19893. 2875. o
11222 2 8 2 -18 56264. 60044. 4013. o
11222 1 2 3 18 56264. 60044. 4013. o
11223 2 8 2 18 56393. 58641. 4324. o
11223 1 2 3 -18 56393. 58641. 4324. o
11224 1 3 3 18 13391. 13119. 2685. o
11225 1 3 3 -18 13344. 12021. 2748. o
11226 1 4 3 18 42056. 41494. 2870. o
11227 1 4 3 -18 41994. 36307. 3009. o
11228 1 5 3 18 13767. 9946. 2750. o
11229 1 5 3 -18 13362. 12448. 2747. o
11230 2 6 3 -18 323903. 347940. 4614. o
11230 1 6 3 18 323903. 347940. 4614. o
11231 2 6 3 18 323721. 333661. 5078. o
11231 1 6 3 -18 323721. 333661. 5078. o
11232 1 7 3 18 30178. 31243. 2682. o
11233 1 7 3 -18 29790. 29656. 2868. o
11234 1 8 3 18 3936. 1220. 2563. <
11235 1 8 3 -18 3897. 8299. 2804. o
11236 1 9 3 18 2958. 2990. 2929. <
11237 1 9 3 -18 2930. 3173. 3234. <
11238 2 4 4 -18 13104. 15987. 5795. o
11238 1 10 3 18 13104. 15987. 5795. o
11239 2 4 4 18 12870. 15377. 3964. o
11239 1 10 3 -18 12870. 15377. 3964. o
11240 1 11 3 18 5730. 5858. 2502. o
11241 1 11 3 -18 5736. 5675. 2563. o
11242 1 12 3 18 3116. 4882. 2806. <
11243 1 12 3 -18 3105. 1892. 2563. <
11244 1 13 3 18 5592. 6041. 2746. o
11245 1 13 3 -18 5737. -2136. 3662. <
11246 2 2 5 -18 23499. 21906. 4640. o
11246 1 14 3 18 23499. 21906. 4640. o
11247 2 2 5 18 23488. 19222. 5130. o
11247 1 14 3 -18 23488. 19222. 5130. o
11248 1 15 3 18 40618. 40213. 2808. o
11249 1 15 3 -18 40551. 40152. 2504. o
11250 1 16 3 18 2340. 5370. 2378. o
11251 1 16 3 -18 2309. 3417. 2501. <
11252 1 17 3 18 6279. 7322. 2745. o
11253 1 17 3 -18 6321. 6407. 2441. o
11254 2 0 6 -18 98523. 96962. 3916. o
11254 1 18 3 18 98523. 96962. 3916. o
11255 2 0 6 18 97708. 91165. 4491. o
11255 1 18 3 -18 97708. 91165. 4491. o
11256 1 19 3 18 8861. 13180. 2741. o
11257 1 19 3 -18 8939. 10984. 2927. o
11258 1 20 3 18 1349. 5919. 2439. o
11259 1 20 3 -18 1307. 3417. 2867. <
11260 1 21 3 18 2994. 11594. 4939. o
11261 1 21 3 -18 2973. 6102. 2317. o
11262 2 -2 7 -18 1914. 4638. 5003. <
11262 1 22 3 18 1914. 4638. 5003. <
11263 2 -2 7 18 1909. 6468. 3538. <
11263 1 22 3 -18 1909. 6468. 3538. <
11264 1 23 3 18 4527. 8665. 2682. o
11265 1 23 3 -18 4593. 12631. 2616. o
11266 1 24 3 18 3201. 4210. 3417. <
11267 1 24 3 -18 3207. 7872. 2560. o
11268 1 25 3 18 7336. 9275. 3416. o
11269 1 25 3 -18 7334. 7994. 2013. o
11270 2 24 -4 -18 19133. 14950. 5068. o
11270 1 -24 4 18 19133. 14950. 5068. o
11271 2 24 -4 18 19037. 24713. 3468. o
11271 1 -24 4 -18 19037. 24713. 3468. o
11272 2 22 -3 -18 3369. -1037. 5065. <
11272 1 -20 4 18 3369. -1037. 5065. <
11273 2 22 -3 18 3390. 8421. 3292. o
11273 1 -20 4 -18 3390. 8421. 3292. o
11274 2 20 -2 -18 6529. 4882. 5309. <
11274 1 -16 4 18 6529. 4882. 5309. <
11275 2 20 -2 18 6545. 8909. 3416. o
11275 1 -16 4 -18 6545. 8909. 3416. o
11276 2 18 -1 -18 83021. 105200. 4699. o
11276 1 -12 4 18 83021. 105200. 4699. o
11277 2 18 -1 18 84999. 86954. 4750. o
11277 1 -12 4 -18 84999. 86954. 4750. o
11278 2 16 0 -18 17170. 16414. 3845. o
11278 1 -8 4 18 17170. 16414. 3845. o
11279 2 16 0 18 17301. 21662. 6342. o
11279 1 -8 4 -18 17301. 21662. 6342. o
11280 2 14 1 -18 10802. 16720. 3777. o
11280 1 -4 4 18 10802. 16720. 3777. o
11281 2 14 1 18 10848. 13058. 3903. o
11281 1 -4 4 -18 10848. 13058. 3903. o
11282 2 12 2 -18 14166. 22761. 5422. o
11282 1 0 4 18 14166. 22761. 5422. o
11283 2 12 2 18 13220. 14584. 4026. o
11283 1 0 4 -18 13220. 14584. 4026. o
11284 1 1 4 18 4299. 3905. 3173. <
11285 1 1 4 -18 3985. 3539. 2929. <
11286 1 2 4 18 31882. 32402. 3050. o
11287 1 2 4 -18 32018. 30693. 3116. o
11288 1 3 4 18 11198. 12509. 2805. o
11289 1 3 4 -18 11029. 12387. 2866. o
11290 2 10 3 -18 6816. 8421. 4149. o
11290 1 4 4 18 6816. 8421. 4149. o
11291 2 10 3 18 7015. 7445. 3844. <
11291 1 4 4 -18 7015. 7445. 3844. <
11292 1 5 4 18 1099. 6956. 3232. o
11293 1 5 4 -18 1076. 3478. 2745. <
11294 1 6 4 18 5695. 2868. 3357. <
11295 1 6 4 -18 5564. 3356. 2930. <
11296 1 7 4 18 326. 4455. 3111. <
11297 1 7 4 -18 286. 1281. 3356. <
11298 2 8 4 -18 10047. 17391. 3837. o
11298 1 8 4 18 10047. 17391. 3837. o
11299 2 8 4 18 10189. 4882. 4030. <
11299 1 8 4 -18 10189. 4882. 4030. <
11300 1 9 4 18 7768. 6041. 2625. o
11301 1 9 4 -18 7776. 2624. 2931. <
11302 1 10 4 18 34198. 34538. 2989. o
11303 1 10 4 -18 34518. 31731. 3546. o
11304 1 11 4 18 49879. 56932. 3449. o
11305 1 11 4 -18 50349. 46925. 4343. o
11306 2 6 5 -18 75798. 76520. 6344. o
11306 1 12 4 18 75798. 76520. 6344. o
11307 2 6 5 18 77502. 69747. 4670. o
11307 1 12 4 -18 77502. 69747. 4670. o
11308 1 13 4 18 102680. 106176. 3142. o
11309 1 13 4 -18 103923. 100257. 3083. o
11310 1 14 4 18 9243. 10007. 2806. o
11311 1 14 4 -18 9365. 8970. 2868. o
11312 1 15 4 18 24302. 24469. 3661. o
11313 1 15 4 -18 24383. 22944. 3054. o
11314 2 4 6 -18 6602. 7689. 5064. <
11314 1 16 4 18 6602. 7689. 5064. <
11315 2 4 6 18 6610. 3295. 3845. <
11315 1 16 4 -18 6610. 3295. 3845. <
11316 1 17 4 18 11682. 7506. 3603. o
11317 1 17 4 -18 11629. 16476. 2739. o
11318 1 18 4 18 1772. 2075. 2746. <
11319 1 18 4 -18 1790. 4088. 2684. <
11320 1 19 4 18 11402. 8177. 3846. o
11321 1 19 4 -18 11387. 9885. 2504. o
11322 2 2 7 -18 3307. 9641. 5490. <
11322 1 20 4 18 3307. 9641. 5490. <
11323 2 2 7 18 3329. 5126. 3661. <
11323 1 20 4 -18 3329. 5126. 3661. <
11324 1 21 4 18 11226. 11960. 2806. o
11325 1 21 4 -18 11251. 10129. 2198. o
11326 1 22 4 18 1326. 7078. 2804. o
11327 1 22 4 -18 1358. 5980. 2255. o
11328 1 23 4 18 1804. 4577. 3599. <
11329 1 23 4 -18 1802. 7017. 2499. o
11330 2 0 8 -18 16507. 20259. 5488. o
11330 1 24 4 18 16507. 20259. 5488. o
11331 2 0 8 18 16364. 18794. 3963. o
11331 1 24 4 -18 16364. 18794. 3963. o
11332 2 24 -2 -18 74627. 67184. 4122. o
11332 1 -18 5 18 74627. 67184. 4122. o
11333 2 24 -2 18 74336. 68770. 3811. o
11333 1 -18 5 -18 74336. 68770. 3811. o
11334 2 22 -1 -18 13604. 14279. 3783. o
11334 1 -14 5 18 13604. 14279. 3783. o
11335 2 22 -1 18 13593. 9153. 5006. <
11335 1 -14 5 -18 13593. 9153. 5006. <
11336 2 20 0 -18 10204. 11960. 3965. o
11336 1 -10 5 18 10204. 11960. 3965. o
11337 2 20 0 18 10301. 19893. 5423. o
11337 1 -10 5 -18 10301. 19893. 5423. o
11338 2 18 1 -18 141210. 154931. 4455. o
11338 1 -6 5 18 141210. 154931. 4455. o
11339 2 18 1 18 141456. 172566. 7011. o
11339 1 -6 5 -18 141456. 172566. 7011. o
11340 2 16 2 -18 23106. 22883. 4394. o
11340 1 -2 5 18 23106. 22883. 4394. o
11341 2 16 2 18 22878. 18367. 5557. o
11341 1 -2 5 -18 22878. 18367. 5557. o
11342 1 0 5 18 2378. 6041. 3843. <
11343 1 0 5 -18 2491. 305. 4028. <
11344 1 1 5 18 1272. 4699. 2806. <
11345 1 1 5 -18 1338. 6468. 2805. o
11346 2 14 3 -18 19068. 19832. 3904. o
11346 1 2 5 18 19068. 19832. 3904. o
11347 2 14 3 18 18920. 15987. 3848. o
11347 1 2 5 -18 18920. 15987. 3848. o
11348 1 3 5 18 17755. 14035. 2934. o
11349 1 3 5 -18 17676. 14584. 3970. o
11350 1 4 5 18 8949. 8848. 2746. o
11351 1 4 5 -18 8738. 4699. 3419. <
11352 1 5 5 18 24903. 25568. 3538. o
11353 1 5 5 -18 25403. 26056. 2989. o
11354 2 12 4 -18 121853. 103735. 6249. o
11354 1 6 5 18 121853. 103735. 6249. o
11355 2 12 4 18 121456. 110325. 5071. o
11355 1 6 5 -18 121456. 110325. 5071. o
11356 1 7 5 18 36797. 30876. 2825. o
11357 1 7 5 -18 36520. 30510. 3432. o
11358 1 8 5 18 8633. 6956. 2747. o
11359 1 8 5 -18 8521. 10190. 2989. o
11360 1 9 5 18 6239. 5858. 3051. <
11361 1 9 5 -18 6415. 6590. 3539. <
11362 2 10 5 -18 9060. 7078. 4699. <
11362 1 10 5 18 9060. 7078. 4699. <
11363 2 10 5 18 9100. 6102. 4029. <
11363 1 10 5 -18 9100. 6102. 4029. <
11364 1 11 5 18 7442. 3661. 3297. <
11365 1 11 5 -18 7548. 4149. 3358. <
11366 1 12 5 18 1074. 2075. 3844. <
11367 1 12 5 -18 1054. 6041. 4026. <
11368 1 13 5 18 4750. -427. 5370. <
11369 1 13 5 -18 4888. 3783. 4943. <
11370 2 8 6 18 12793. 20564. 6707. o
11370 1 14 5 -18 12793. 20564. 6707. o
11371 1 15 5 18 11502. 10801. 2930. o
11372 1 15 5 -18 11600. 16354. 3534. o
11373 1 16 5 18 20234. 20015. 3540. o
11374 1 16 5 -18 20203. 16842. 2813. o
11375 1 17 5 18 10180. 8604. 3967. o
11376 1 17 5 -18 9893. 12448. 2743. o
11377 2 6 7 18 71451. 49793. 4648. o
11377 1 18 5 -18 71451. 49793. 4648. o
11378 1 19 5 18 14010. 9824. 3482. o
11379 1 19 5 -18 13833. 11777. 2444. o
11380 1 20 5 18 6317. 9336. 3415. o
11381 1 20 5 -18 6198. 8421. 2378. o
11382 1 21 5 18 1887. 6895. 2988. o
11383 1 21 5 -18 1879. 4882. 2440. <
11384 2 26 -1 -18 7767. 11960. 5123. o
11384 1 -16 6 18 7767. 11960. 5123. o
11385 2 26 -1 18 7702. 7384. 3539. o
11385 1 -16 6 -18 7702. 7384. 3539. o
11386 2 24 0 -18 12900. 14950. 3903. o
11386 1 -12 6 18 12900. 14950. 3903. o
11387 2 24 0 18 12520. 14645. 3537. o
11387 1 -12 6 -18 12520. 14645. 3537. o
11388 2 22 1 -18 2025. 8177. 6467. <
11388 1 -8 6 18 2025. 8177. 6467. <
11389 2 22 1 18 2036. 4760. 6163. <
11389 1 -8 6 -18 2036. 4760. 6163. <
11390 2 20 2 -18 3886. 305. 3906. <
11390 1 -4 6 18 3886. 305. 3906. <
11391 2 20 2 18 3914. 11289. 4023. o
11391 1 -4 6 -18 3914. 11289. 4023. o
11392 2 18 3 -18 25208. 42043. 6136. o
11392 1 0 6 18 25208. 42043. 6136. o
11393 2 18 3 18 25729. 29412. 4326. o
11393 1 0 6 -18 25729. 29412. 4326. o
11394 1 1 6 18 79612. 66146. 4752. o
11395 1 1 6 -18 80683. 73469. 3339. o
11396 1 2 6 18 23799. 19527. 3546. o
11397 1 2 6 -18 24039. 18001. 3122. o
11398 1 3 6 18 16114. 14584. 2931. o
11399 1 3 6 -18 16150. 14767. 3175. o
11400 2 16 4 -18 4519. 1464. 4028. <
11400 1 4 6 18 4519. 1464. 4028. <
11401 2 16 4 18 4541. 5248. 4515. <
11401 1 4 6 -18 4541. 5248. 4515. <
11402 1 5 6 18 1998. 7078. 2865. o
11403 1 5 6 -18 2074. 3478. 2929. <
11404 1 6 6 18 2166. 6041. 2866. o
11405 1 6 6 -18 2153. 7689. 2804. o
11406 1 7 6 18 28747. 22456. 3794. o
11407 1 7 6 -18 28628. 18977. 3677. o
11408 2 14 5 -18 3724. 5614. 4881. <
11408 1 8 6 18 3724. 5614. 4881. <
11409 2 14 5 18 3717. 6102. 4393. <
11409 1 8 6 -18 3717. 6102. 4393. <
11410 1 9 6 18 13807. 12936. 4333. o
11411 1 9 6 -18 13693. 14767. 2989. o
11412 1 10 6 18 6343. 8665. 3172. o
11413 1 10 6 -18 6457. 4882. 3540. <
11414 1 11 6 18 2906. 6285. 3111. o
11415 1 11 6 -18 2727. 11411. 4511. o
11416 2 12 6 -18 7025. 10434. 5368. <
11416 1 12 6 18 7025. 10434. 5368. <
11417 2 12 6 18 6847. 12875. 7442. <
11417 1 12 6 -18 6847. 12875. 7442. <
11418 1 13 6 18 14894. 13608. 2870. o
11419 1 13 6 -18 14247. 20747. 2979. o
11420 1 14 6 18 23346. 27154. 2981. o
11421 1 14 6 -18 23303. 17879. 2939. o
11422 1 15 6 18 10005. 9336. 5736. <
11423 1 15 6 -18 9880. 12875. 2926. o
11424 2 10 7 18 7372. 5980. 4699. <
11424 1 16 6 -18 7372. 5980. 4699. <
11425 1 17 6 18 2639. 7200. 3415. o
11426 1 17 6 -18 2638. 7445. 2560. o
11427 1 18 6 18 6277. 9580. 2865. o
11428 1 18 6 -18 6250. 10679. 2498. o
11429 2 26 1 -18 2926. 5004. 4088. <
11429 1 -10 7 18 2926. 5004. 4088. <
11430 2 26 1 18 2932. 6712. 5674. <
11430 1 -10 7 -18 2932. 6712. 5674. <
11431 2 24 2 -18 56687. 42531. 4615. o
11431 1 -6 7 18 56687. 42531. 4615. o
11432 2 24 2 18 56566. 59068. 6951. o
11432 1 -6 7 -18 56566. 59068. 6951. o
11433 2 22 3 -18 1679. 8970. 5978. <
11433 1 -2 7 18 1679. 8970. 5978. <
11434 2 22 3 18 1671. 7017. 4087. <
11434 1 -2 7 -18 1671. 7017. 4087. <
11435 1 0 7 18 7851. 5492. 4028. <
11436 1 0 7 -18 7662. 7445. 4150. <
11437 1 1 7 18 2898. 4577. 3295. <
11438 1 1 7 -18 3000. 8665. 2864. o
11439 2 20 4 -18 1984. 5614. 5918. <
11439 1 2 7 18 1984. 5614. 5918. <
11440 2 20 4 18 1970. 7994. 6100. <
11440 1 2 7 -18 1970. 7994. 6100. <
11441 1 3 7 18 14532. 9031. 3544. o
11442 1 3 7 -18 14711. 15682. 3477. o
11443 1 4 7 18 10416. 10007. 3295. o
11444 1 4 7 -18 10272. 10129. 3051. o
11445 1 5 7 18 19377. 18367. 2931. o
11446 1 5 7 -18 19183. 15133. 3666. o
11447 2 18 5 -18 57366. 50464. 6727. o
11447 1 6 7 18 57366. 50464. 6727. o
11448 2 18 5 18 57495. 40030. 4986. o
11448 1 6 7 -18 57495. 40030. 4986. o
11449 1 7 7 18 18689. 12326. 3668. o
11450 1 7 7 -18 19087. 16781. 5738. o
11451 1 8 7 18 10707. 5553. 2750. o
11452 1 8 7 -18 10485. 13424. 6039. o
11453 1 9 7 18 1871. 8177. 3414. o
11454 1 9 7 -18 1803. 6529. 3415. <
11455 2 16 6 -18 3601. 5553. 4942. <
11455 1 10 7 18 3601. 5553. 4942. <
11456 2 16 6 18 3638. 12387. 4572. o
11456 1 10 7 -18 3638. 12387. 4572. o
11457 1 11 7 18 2470. 3966. 3356. <
11458 1 11 7 -18 2436. 7017. 4697. <
11459 1 12 7 18 4246. 5797. 4393. <
11460 1 12 7 -18 4301. 3783. 4577. <
11461 1 13 7 18 141. 6468. 4575. <
11462 1 13 7 -18 143. 6041. 3049. <
11463 1 2 0 19 18635. 23188. 3532. o
11464 1 2 0 -19 18974. 19405. 3600. o
11465 2 -2 1 -19 32297. 34233. 3595. o
11465 1 4 0 19 32297. 34233. 3595. o
11466 2 -2 1 19 32075. 32951. 3598. o
11466 1 4 0 -19 32075. 32951. 3598. o
11467 1 6 0 19 73691. 72004. 3548. o
11468 1 6 0 -19 73459. 62363. 3835. o
11469 2 -4 2 -19 41992. 35392. 3558. o
11469 1 8 0 19 41992. 35392. 3558. o
11470 2 -4 2 19 42255. 36612. 3556. o
11470 1 8 0 -19 42255. 36612. 3556. o
11471 1 10 0 19 38811. 36124. 3303. o
11472 1 10 0 -19 38851. 27459. 4901. o
11473 2 -6 3 -19 43313. 48450. 4685. o
11473 1 12 0 19 43313. 48450. 4685. o
11474 2 -6 3 19 43932. 42837. 3604. o
11474 1 12 0 -19 43932. 42837. 3604. o
11475 1 14 0 19 25383. 22272. 3301. o
11476 1 14 0 -19 25162. 12082. 4650. o
11477 2 -8 4 -19 39839. 33012. 3254. o
11477 1 16 0 19 39839. 33012. 3254. o
11478 2 -8 4 19 39902. 25507. 4966. o
11478 1 16 0 -19 39902. 25507. 4966. o
11479 1 18 0 19 12334. 7261. 2994. o
11480 1 18 0 -19 12210. 8177. 4213. <
11481 2 -10 5 -19 13071. 6773. 2934. o
11481 1 20 0 19 13071. 6773. 2934. o
11482 2 -10 5 19 13007. 12082. 3174. o
11482 1 20 0 -19 13007. 12082. 3174. o
11483 1 22 0 19 5748. 7567. 3172. o
11484 1 22 0 -19 5724. 6712. 4576. <
11485 2 -12 6 -19 49570. 43020. 4533. o
11485 1 24 0 19 49570. 43020. 4533. o
11486 2 -12 6 19 48898. 41128. 3565. o
11486 1 24 0 -19 48898. 41128. 3565. o
11487 1 26 0 19 7391. 12631. 4390. o
11488 1 26 0 -19 7329. 8909. 2500. o
11489 2 16 -6 -19 4512. 4882. 4637. <
11489 1 -26 1 19 4512. 4882. 4637. <
11490 2 16 -6 19 4532. 7322. 3233. o
11490 1 -26 1 -19 4532. 7322. 3233. o
11491 2 14 -5 -19 14474. 7139. 4825. <
11491 1 -22 1 19 14474. 7139. 4825. <
11492 2 14 -5 19 14668. 15865. 3110. o
11492 1 -22 1 -19 14668. 15865. 3110. o
11493 2 12 -4 -19 64489. 60166. 3256. o
11493 1 -18 1 19 64489. 60166. 3256. o
11494 2 12 -4 19 64460. 66329. 4447. o
11494 1 -18 1 -19 64460. 66329. 4447. o
11495 2 10 -3 -19 13899. 14645. 4210. o
11495 1 -14 1 19 13899. 14645. 4210. o
11496 2 10 -3 19 13726. 21052. 4630. o
11496 1 -14 1 -19 13726. 21052. 4630. o
11497 2 8 -2 -19 9927. 10374. 3295. o
11497 1 -10 1 19 9927. 10374. 3295. o
11498 2 8 -2 19 9955. 10984. 3416. o
11498 1 -10 1 -19 9955. 10984. 3416. o
11499 2 6 -1 -19 18432. 17940. 3357. o
11499 1 -6 1 19 18432. 17940. 3357. o
11500 2 6 -1 19 18162. 19893. 3537. o
11500 1 -6 1 -19 18162. 19893. 3537. o
11501 2 4 0 -19 12045. 18367. 3776. o
11501 1 -2 1 19 12045. 18367. 3776. o
11502 2 4 0 19 12088. 6102. 3604. <
11502 1 -2 1 -19 12088. 6102. 3604. <
11503 1 1 1 19 89456. 98304. 2726. o
11504 1 1 1 -19 89258. 82439. 2861. o
11505 2 2 1 -19 6571. 14340. 3716. o
11505 1 2 1 19 6571. 14340. 3716. o
11506 2 2 1 19 6567. 8299. 3721. o
11506 1 2 1 -19 6567. 8299. 3721. o
11507 1 3 1 19 6082. 6895. 2501. o
11508 1 3 1 -19 6135. 6224. 2563. o
11509 1 4 1 19 3341. 2746. 2380. <
11510 1 4 1 -19 3348. 4027. 2502. <
11511 1 5 1 19 2978. 4149. 2379. <
11512 1 5 1 -19 2971. 5980. 2500. o
11513 1 6 1 19 15235. 16964. 3476. o
11514 1 6 1 -19 14892. 9153. 3727. o
11515 1 7 1 19 397. 1037. 2807. <
11516 1 7 1 -19 429. 3112. 2501. <
11517 1 8 1 19 9972. 8604. 2808. o
11518 1 8 1 -19 10267. 7261. 2992. o
11519 1 9 1 19 1849. 2258. 2746. <
11520 1 9 1 -19 1878. 0. 2868. <
11521 2 -2 3 -19 6868. 6773. 5126. <
11521 1 10 1 19 6868. 6773. 5126. <
11522 2 -2 3 19 6890. 7322. 3478. o
11522 1 10 1 -19 6890. 7322. 3478. o
11523 1 11 1 19 37918. 34599. 3426. o
11524 1 11 1 -19 37804. 31365. 3009. o
11525 1 12 1 19 4542. 5980. 3233. <
11526 1 12 1 -19 4657. 2136. 2747. <
11527 1 13 1 19 31283. 38443. 3274. o
11528 1 13 1 -19 31253. 23310. 3372. o
11529 2 -4 4 -19 15134. 15011. 4821. o
11529 1 14 1 19 15134. 15011. 4821. o
11530 2 -4 4 19 15000. 8238. 4520. <
11530 1 14 1 -19 15000. 8238. 4520. <
11531 1 15 1 19 231. 3539. 2440. <
11532 1 15 1 -19 245. 4027. 2745. <
11533 1 16 1 19 3066. 3356. 2624. <
11534 1 16 1 -19 3008. 3966. 2318. <
11535 1 17 1 19 127. -1648. 2197. <
11536 1 17 1 -19 137. -366. 2258. <
11537 2 -6 5 -19 65013. 64194. 3421. o
11537 1 18 1 19 65013. 64194. 3421. o
11538 2 -6 5 19 64996. 58946. 3749. o
11538 1 18 1 -19 64996. 58946. 3749. o
11539 1 19 1 19 2920. 2807. 2136. <
11540 1 19 1 -19 2919. 6529. 2561. o
11541 1 20 1 19 174. 976. 2136. <
11542 1 20 1 -19 167. 3051. 3112. <
11543 1 21 1 19 10219. 8238. 2199. o
11544 1 21 1 -19 10162. 7322. 2626. o
11545 2 -8 6 -19 10300. 10068. 4638. o
11545 1 22 1 19 10300. 10068. 4638. o
11546 2 -8 6 19 10482. 6041. 4639. <
11546 1 22 1 -19 10482. 6041. 4639. <
11547 1 23 1 19 14964. 18794. 3229. o
11548 1 23 1 -19 14924. 17635. 2375. o
11549 1 24 1 19 9962. 7078. 2626. o
11550 1 24 1 -19 10035. 11472. 2317. o
11551 1 25 1 19 3642. 8299. 2926. o
11552 1 25 1 -19 3649. 8909. 2253. o
11553 2 -10 7 -19 3149. 3478. 5065. <
11553 1 26 1 19 3149. 3478. 5065. <
11554 2 -10 7 19 3156. 10068. 2741. o
11554 1 26 1 -19 3156. 10068. 2741. o
11555 2 18 -5 -19 15143. 10618. 3117. o
11555 1 -24 2 19 15143. 10618. 3117. o
11556 2 18 -5 19 15488. 12936. 3237. o
11556 1 -24 2 -19 15488. 12936. 3237. o
11557 2 16 -4 -19 12840. 21174. 4629. o
11557 1 -20 2 19 12840. 21174. 4629. o
11558 2 16 -4 19 13126. 7261. 3178. o
11558 1 -20 2 -19 13126. 7261. 3178. o
11559 2 14 -3 -19 16700. 13302. 3055. o
11559 1 -16 2 19 16700. 13302. 3055. o
11560 2 14 -3 19 16512. 16414. 4821. o
11560 1 -16 2 -19 16512. 16414. 4821. o
11561 2 12 -2 -19 66650. 67550. 3596. o
11561 1 -12 2 19 66650. 67550. 3596. o
11562 2 12 -2 19 66287. 75910. 5703. o
11562 1 -12 2 -19 66287. 75910. 5703. o
11563 2 10 -1 -19 26615. 28863. 3718. o
11563 1 -8 2 19 26615. 28863. 3718. o
11564 2 10 -1 19 26567. 22334. 3669. o
11564 1 -8 2 -19 26567. 22334. 3669. o
11565 2 8 0 -19 41129. 45399. 3770. o
11565 1 -4 2 19 41129. 45399. 3770. o
11566 2 8 0 19 40908. 46071. 3828. o
11566 1 -4 2 -19 40908. 46071. 3828. o
11567 1 1 2 19 8283. 8299. 2624. o
11568 1 1 2 -19 8471. 11045. 2621. o
11569 1 2 2 19 25530. 25202. 2625. o
11570 1 2 2 -19 25158. 22761. 2691. o
11571 1 3 2 19 1366. 2807. 2563. <
11572 1 3 2 -19 1386. 5736. 2622. o
11573 2 4 2 -19 40792. 49488. 3816. o
11573 1 4 2 19 40792. 49488. 3816. o
11574 2 4 2 19 40657. 47352. 3946. o
11574 1 4 2 -19 40657. 47352. 3946. o
11575 1 5 2 19 24. 1831. 2502. <
11576 1 5 2 -19 33. 5187. 2744. <
11577 1 6 2 19 39709. 45155. 2723. o
11578 1 6 2 -19 39749. 32158. 3256. o
11579 1 7 2 19 3061. 6468. 2500. o
11580 1 7 2 -19 3022. 2014. 3051. <
11581 2 2 3 -19 28103. 23432. 5985. o
11581 1 8 2 19 28103. 23432. 5985. o
11582 2 2 3 19 28063. 24225. 3790. o
11582 1 8 2 -19 28063. 24225. 3790. o
11583 1 9 2 19 11221. 14340. 2925. o
11584 1 9 2 -19 11071. 10252. 2564. o
11585 1 10 2 19 12645. 15316. 2559. o
11586 1 10 2 -19 12686. 9763. 2505. o
11587 1 11 2 19 6904. 12997. 2678. o
11588 1 11 2 -19 6898. 4210. 2747. <
11589 1 12 2 19 54954. 68404. 5819. o
11590 1 12 2 -19 54491. 43386. 5153. o
11591 1 13 2 19 1037. 8543. 2558. o
11592 1 13 2 -19 1097. 2929. 2868. <
11593 1 14 2 19 1882. 7506. 2560. o
11594 1 14 2 -19 1934. 915. 2258. <
11595 1 15 2 19 2398. 4882. 2318. o
11596 1 15 2 -19 2420. 1403. 2807. <
11597 2 -2 5 -19 16806. 17574. 3294. o
11597 1 16 2 19 16806. 17574. 3294. o
11598 2 -2 5 19 16626. 14767. 3663. o
11598 1 16 2 -19 16626. 14767. 3663. o
11599 1 17 2 19 5721. 2807. 2259. <
11600 1 17 2 -19 5766. 7261. 2623. o
11601 1 18 2 19 9015. 8970. 2563. o
11602 1 18 2 -19 8978. 7750. 2686. o
11603 1 19 2 19 5276. -366. 3235. <
11604 1 19 2 -19 5354. 9031. 2438. o
11605 2 -4 6 -19 13748. 14462. 4820. o
11605 1 20 2 19 13748. 14462. 4820. o
11606 2 -4 6 19 14036. 16292. 3720. o
11606 1 20 2 -19 14036. 16292. 3720. o
11607 1 21 2 19 2483. 6041. 2439. o
11608 1 21 2 -19 2504. 3356. 2685. <
11609 1 22 2 19 5294. 5614. 2197. o
11610 1 22 2 -19 5293. 3478. 2747. <
11611 1 23 2 19 5199. 5797. 2563. o
11612 1 23 2 -19 5226. 6224. 2379. o
11613 2 -6 7 -19 11098. 9824. 4394. o
11613 1 24 2 19 11098. 9824. 4394. o
11614 2 -6 7 19 11463. 16354. 3534. o
11614 1 24 2 -19 11463. 16354. 3534. o
11615 1 25 2 19 2694. 9031. 3292. o
11616 1 25 2 -19 2720. 7628. 2132. o
11617 2 20 -4 -19 4997. 6712. 5125. <
11617 1 -22 3 19 4997. 6712. 5125. <
11618 2 20 -4 19 4943. 5309. 3112. <
11618 1 -22 3 -19 4943. 5309. 3112. <
11619 2 18 -3 -19 36229. 39908. 3528. o
11619 1 -18 3 19 36229. 39908. 3528. o
11620 2 18 -3 19 36163. 40090. 3466. o
11620 1 -18 3 -19 36163. 40090. 3466. o
11621 2 16 -2 -19 3931. 4393. 3417. <
11621 1 -14 3 19 3931. 4393. 3417. <
11622 2 16 -2 19 4023. 9519. 5246. <
11622 1 -14 3 -19 4023. 9519. 5246. <
11623 2 14 -1 -19 13745. 8055. 5556. <
11623 1 -10 3 19 13745. 8055. 5556. <
11624 2 14 -1 19 13918. 16598. 3536. o
11624 1 -10 3 -19 13918. 16598. 3536. o
11625 2 12 0 -19 45807. 44362. 3788. o
11625 1 -6 3 19 45807. 44362. 3788. o
11626 2 12 0 19 45870. 52783. 6026. o
11626 1 -6 3 -19 45870. 52783. 6026. o
11627 2 10 1 -19 12338. 13424. 3904. o
11627 1 -2 3 19 12338. 13424. 3904. o
11628 2 10 1 19 12312. 17635. 3900. o
11628 1 -2 3 -19 12312. 17635. 3900. o
11629 1 1 3 19 23673. 29290. 2792. o
11630 1 1 3 -19 23892. 23249. 2808. o
11631 2 8 2 -19 16880. 13180. 3970. o
11631 1 2 3 19 16880. 13180. 3970. o
11632 2 8 2 19 16867. 14828. 3846. o
11632 1 2 3 -19 16867. 14828. 3846. o
11633 1 3 3 19 3245. 5797. 2928. <
11634 1 3 3 -19 3147. 5187. 3050. <
11635 1 4 3 19 13093. 12021. 2686. o
11636 1 4 3 -19 13226. 10068. 3237. o
11637 1 5 3 19 10842. 10068. 2686. o
11638 1 5 3 -19 10680. 9641. 2808. o
11639 2 6 3 -19 46384. 50464. 4259. o
11639 1 6 3 19 46384. 50464. 4259. o
11640 2 6 3 19 46545. 44606. 4155. o
11640 1 6 3 -19 46545. 44606. 4155. o
11641 1 7 3 19 8213. 4882. 2626. <
11642 1 7 3 -19 8054. 10679. 3110. o
11643 1 8 3 19 8247. 4638. 2931. <
11644 1 8 3 -19 8153. 10923. 3171. o
11645 1 9 3 19 4995. 8543. 4087. o
11646 1 9 3 -19 5095. 7200. 2622. o
11647 2 4 4 -19 15019. 13180. 3724. o
11647 1 10 3 19 15019. 13180. 3724. o
11648 2 4 4 19 15171. 13547. 3846. o
11648 1 10 3 -19 15171. 13547. 3846. o
11649 1 11 3 19 19324. 20869. 5734. o
11650 1 11 3 -19 19484. 15865. 2569. o
11651 1 12 3 19 12509. 9336. 4761. <
11652 1 12 3 -19 12589. 13791. 2561. o
11653 1 13 3 19 11314. 14828. 3780. o
11654 1 13 3 -19 11358. 12753. 5247. o
11655 2 2 5 -19 613. 4332. 4515. <
11655 1 14 3 19 613. 4332. 4515. <
11656 1 15 3 19 6148. 5065. 4211. <
11657 1 15 3 -19 6148. 10252. 2803. o
11658 1 16 3 19 8896. 12204. 3170. o
11659 1 16 3 -19 8894. 6956. 2808. o
11660 1 17 3 19 16004. 14340. 2444. o
11661 1 17 3 -19 15932. 13058. 2872. o
11662 1 18 3 19 29841. 24469. 4768. o
11663 1 18 3 -19 29757. 31060. 5246. o
11664 1 19 3 19 1542. 1526. 3356. <
11665 1 19 3 -19 1530. 3722. 2745. <
11666 1 20 3 19 6153. 10068. 3292. o
11667 1 20 3 -19 6199. 13058. 2800. o
11668 1 21 3 19 3828. 5553. 2623. o
11669 1 21 3 -19 3952. 10190. 2435. o
11670 2 -2 7 -19 7220. 11167. 5124. o
11670 1 22 3 19 7220. 11167. 5124. o
11671 2 -2 7 19 7145. 15438. 3531. o
11671 1 22 3 -19 7145. 15438. 3531. o
11672 1 23 3 19 2913. 11838. 3594. o
11673 1 23 3 -19 2963. 7689. 2315. o
11674 1 24 3 19 1689. 6346. 3232. <
11675 1 24 3 -19 1739. 6163. 2316. o
11676 2 22 -3 -19 9891. 8665. 5370. <
11676 1 -20 4 19 9891. 8665. 5370. <
11677 2 22 -3 19 9905. 10923. 3660. o
11677 1 -20 4 -19 9905. 10923. 3660. o
11678 2 20 -2 -19 5262. 10068. 3475. o
11678 1 -16 4 19 5262. 10068. 3475. o
11679 2 20 -2 19 5163. 2990. 3540. <
11679 1 -16 4 -19 5163. 2990. 3540. <
11680 2 18 -1 -19 16141. 21906. 5303. o
11680 1 -12 4 19 16141. 21906. 5303. o
11681 2 16 0 -19 19493. 23676. 3654. o
11681 1 -8 4 19 19493. 23676. 3654. o
11682 2 16 0 19 19586. 23615. 5549. o
11682 1 -8 4 -19 19586. 23615. 5549. o
11683 2 14 1 -19 19656. 18184. 3846. o
11683 1 -4 4 19 19656. 18184. 3846. o
11684 2 14 1 19 19642. 12875. 5741. o
11684 1 -4 4 -19 19642. 12875. 5741. o
11685 1 1 4 19 5449. 8055. 2927. o
11686 1 1 4 -19 5265. 7445. 3172. o
11687 1 2 4 19 5307. 9336. 2804. o
11688 1 2 4 -19 5384. 8665. 2988. o
11689 1 3 4 19 6545. 12143. 2801. o
11690 1 3 4 -19 6451. 5492. 3357. <
11691 2 10 3 -19 19697. 16232. 3909. o
11691 1 4 4 19 19697. 16232. 3909. o
11692 2 10 3 19 19622. 17452. 4091. o
11692 1 4 4 -19 19622. 17452. 4091. o
11693 1 5 4 19 21442. 18367. 3300. o
11694 1 5 4 -19 21190. 20015. 3419. o
11695 1 6 4 19 21686. 16414. 3486. o
11696 1 6 4 -19 21661. 25080. 2860. o
11697 1 7 4 19 4733. 4638. 3112. <
11698 1 7 4 -19 4685. 122. 2808. <
11699 2 8 4 -19 13965. 18306. 3717. o
11699 1 8 4 19 13965. 18306. 3717. o
11700 2 8 4 19 14052. 15133. 3965. o
11700 1 8 4 -19 14052. 15133. 3965. o
11701 1 9 4 19 4304. 6346. 2562. o
11702 1 9 4 -19 4391. 5126. 3112. <
11703 1 10 4 19 11442. 9458. 3175. o
11704 1 10 4 -19 11319. 8726. 3114. o
11705 1 11 4 19 41151. 35087. 3921. o
11706 1 11 4 -19 41461. 28436. 4177. o
11707 2 6 5 -19 3512. 10312. 3413. o
11707 1 12 4 19 3512. 10312. 3413. o
11708 2 6 5 19 3568. 4760. 3844. <
11708 1 12 4 -19 3568. 4760. 3844. <
11709 1 13 4 19 314. 671. 3112. <
11710 1 13 4 -19 343. 610. 3112. <
11711 1 14 4 19 2282. 5187. 2562. o
11712 1 14 4 -19 2228. 4577. 2684. <
11713 1 15 4 19 1817. 4149. 2806. <
11714 1 15 4 -19 1861. 9275. 2680. o
11715 2 4 6 -19 4015. 7017. 5247. <
11715 1 16 4 19 4015. 7017. 5247. <
11716 2 4 6 19 3987. 8421. 3720. o
11716 1 16 4 -19 3987. 8421. 3720. o
11717 1 17 4 19 2529. 2868. 2990. <
11718 1 17 4 -19 2563. 1342. 2624. <
11719 1 18 4 19 15601. 16109. 2989. o
11720 1 18 4 -19 15492. 18794. 2801. o
11721 1 19 4 19 2604. 5187. 2379. o
11722 1 19 4 -19 2532. 11045. 2923. o
11723 2 2 7 -19 13466. 14523. 5430. o
11723 1 20 4 19 13466. 14523. 5430. o
11724 2 2 7 19 13447. 10374. 5860. <
11724 1 20 4 -19 13447. 10374. 5860. <
11725 1 21 4 19 19360. 10862. 3731. o
11726 1 21 4 -19 19318. 16414. 2995. o
11727 1 22 4 19 292. 5736. 3721. <
11728 1 22 4 -19 310. 5187. 2195. o
11729 2 24 -2 -19 24766. 18428. 3610. o
11729 1 -18 5 19 24766. 18428. 3610. o
11730 2 24 -2 19 24834. 19405. 3609. o
11730 1 -18 5 -19 24834. 19405. 3609. o
11731 2 22 -1 -19 22265. 14340. 5376. o
11731 1 -14 5 19 22265. 14340. 5376. o
11732 2 22 -1 19 22175. 16842. 5070. o
11732 1 -14 5 -19 22175. 16842. 5070. o
11733 2 20 0 19 7216. 8299. 5186. <
11733 1 -10 5 -19 7216. 8299. 5186. <
11734 2 18 1 -19 18607. 15865. 3908. o
11734 1 -6 5 19 18607. 15865. 3908. o
11735 2 18 1 19 18609. 21845. 3840. o
11735 1 -6 5 -19 18609. 21845. 3840. o
11736 2 16 2 -19 4450. 9702. 3902. o
11736 1 -2 5 19 4450. 9702. 3902. o
11737 2 16 2 19 4506. 8238. 5796. <
11737 1 -2 5 -19 4506. 8238. 5796. <
11738 1 1 5 19 4402. 4699. 3417. <
11739 1 1 5 -19 4369. 10557. 4207. o
11740 2 14 3 -19 1034. 1159. 5492. <
11740 1 2 5 19 1034. 1159. 5492. <
11741 2 14 3 19 1040. 976. 5675. <
11741 1 2 5 -19 1040. 976. 5675. <
11742 1 3 5 19 17968. 11716. 2815. o
11743 1 3 5 -19 17911. 16964. 3479. o
11744 1 4 5 19 13172. 11289. 2870. o
11745 1 4 5 -19 13261. 8970. 3421. o
11746 1 5 5 19 11346. 13180. 2744. o
11747 1 5 5 -19 11316. 7994. 3359. o
11748 2 12 4 -19 5474. 6590. 5858. <
11748 1 6 5 19 5474. 6590. 5858. <
11749 2 12 4 19 5460. 9153. 3842. o
11749 1 6 5 -19 5460. 9153. 3842. o
11750 1 7 5 19 2255. 793. 3295. <
11751 1 7 5 -19 2306. 1098. 2746. <
11752 1 8 5 19 6471. 8604. 3477. o
11753 1 8 5 -19 6557. 3783. 4028. <
11754 1 9 5 19 1961. 6834. 5124. <
11755 1 9 5 -19 1943. 3173. 3966. <
11756 2 10 5 -19 5579. 10252. 4696. o
11756 1 10 5 19 5579. 10252. 4696. o
11757 2 10 5 19 5617. 9153. 4270. o
11757 1 10 5 -19 5617. 9153. 4270. o
11758 1 11 5 19 573. 4882. 2683. <
11759 1 11 5 -19 567. 6224. 3293. <
11760 1 12 5 19 158. 915. 2685. <
11761 1 12 5 -19 157. 2380. 2746. <
11762 1 13 5 19 535. 1892. 5980. <
11763 1 13 5 -19 542. 6041. 2744. o
11764 2 8 6 19 20129. 20564. 5674. o
11764 1 14 5 -19 20129. 20564. 5674. o
11765 1 15 5 19 304. 4271. 5674. <
11766 1 15 5 -19 282. 9214. 3902. o
11767 1 16 5 19 6013. 8604. 3416. o
11768 1 16 5 -19 6141. 12082. 2985. o
11769 1 17 5 19 12466. 11106. 2869. o
11770 1 17 5 -19 12226. 12570. 2746. o
11771 2 6 7 -19 23310. 5919. 5684. <
11771 1 18 5 19 23310. 5919. 5684. <
11772 2 6 7 19 23447. 24896. 4819. o
11772 1 18 5 -19 23447. 24896. 4819. o
11773 1 19 5 19 7382. 6041. 3967. <
11774 1 19 5 -19 7349. 14340. 2799. o
11775 1 20 5 19 4373. 6041. 3905. <
11776 1 20 5 -19 4302. 9275. 2926. o
11777 2 26 -1 -19 8916. 5370. 3846. <
11777 1 -16 6 19 8916. 5370. 3846. <
11778 2 26 -1 19 8903. 18855. 5423. o
11778 1 -16 6 -19 8903. 18855. 5423. o
11779 2 24 0 -19 13844. 13364. 3723. o
11779 1 -12 6 19 13844. 13364. 3723. o
11780 2 24 0 19 13925. 13791. 3844. o
11780 1 -12 6 -19 13925. 13791. 3844. o
11781 2 22 1 -19 2818. 7933. 4086. <
11781 1 -8 6 19 2818. 7933. 4086. <
11782 2 22 1 19 2786. 1159. 5858. <
11782 1 -8 6 -19 2786. 1159. 5858. <
11783 2 20 2 -19 9468. 8848. 4394. o
11783 1 -4 6 19 9468. 8848. 4394. o
11784 2 20 2 19 9357. 16354. 4143. o
11784 1 -4 6 -19 9357. 16354. 4143. o
11785 1 1 6 19 29502. 29534. 4760. o
11786 1 1 6 -19 29852. 24896. 3306. o
11787 1 2 6 19 4274. 4760. 3417. <
11788 1 2 6 -19 4173. 7689. 3110. o
11789 1 3 6 19 6432. 7994. 2928. o
11790 1 3 6 -19 6455. 6346. 3173. <
11791 2 16 4 -19 7321. 10984. 6039. <
11791 1 4 6 19 7321. 10984. 6039. <
11792 2 16 4 19 7278. 8360. 4454. <
11792 1 4 6 -19 7278. 8360. 4454. <
11793 1 5 6 19 936. 854. 4332. <
11794 1 5 6 -19 914. 5553. 3538. <
11795 1 6 6 19 9773. 13730. 4329. o
11796 1 6 6 -19 9781. 13547. 4635. o
11797 1 7 6 19 11666. 13913. 2804. o
11798 1 7 6 -19 11799. 14584. 3536. o
11799 2 14 5 -19 4893. 18001. 5972. o
11799 1 8 6 19 4893. 18001. 5972. o
11800 2 14 5 19 4911. 9824. 4452. o
11800 1 8 6 -19 4911. 9824. 4452. o
11801 1 9 6 19 6058. 4332. 5797. <
11802 1 9 6 -19 5956. 4027. 3906. <
11803 1 10 6 19 1729. 5980. 5247. <
11804 1 10 6 -19 1668. 3539. 4027. <
11805 1 11 6 19 12861. 13424. 6407. o
11806 1 11 6 -19 12648. 12936. 3661. o
11807 2 12 6 19 4251. 10129. 4635. o
11807 1 12 6 -19 4251. 10129. 4635. o
11808 1 13 6 19 988. 12143. 3104. o
11809 1 13 6 -19 1005. 6041. 3293. <
11810 1 14 6 19 5169. 12204. 3901. o
11811 1 14 6 -19 5127. 8848. 3476. o
11812 1 15 6 19 4209. 7567. 3599. o
11813 1 15 6 -19 4132. 5736. 3355. <
11814 2 10 7 19 8738. 6590. 7628. <
11814 1 16 6 -19 8738. 6590. 7628. <
11815 2 26 1 -19 2527. 11045. 4634. o
11815 1 -10 7 19 2527. 11045. 4634. o
11816 2 26 1 19 2572. 3539. 5309. <
11816 1 -10 7 -19 2572. 3539. 5309. <
11817 2 24 2 -19 6044. 10923. 5673. <
11817 1 -6 7 19 6044. 10923. 5673. <
11818 2 24 2 19 6017. 6407. 4088. <
11818 1 -6 7 -19 6017. 6407. 4088. <
11819 2 22 3 -19 20062. 15316. 6898. o
11819 1 -2 7 19 20062. 15316. 6898. o
11820 2 22 3 19 20174. 19038. 4395. o
11820 1 -2 7 -19 20174. 19038. 4395. o
11821 1 1 7 19 1406. 2014. 4576. <
11822 1 1 7 -19 1373. 8177. 2925. o
11823 2 20 4 -19 21411. 15072. 6107. o
11823 1 2 7 19 21411. 15072. 6107. o
11824 2 20 4 19 21510. 22822. 4331. o
11824 1 2 7 -19 21510. 22822. 4331. o
11825 1 3 7 19 3421. 8909. 3414. o
11826 1 3 7 -19 3379. 7689. 2988. o
11827 1 4 7 19 6242. 4577. 2930. <
11828 1 4 7 -19 6305. 10801. 3414. o
11829 1 5 7 19 11039. 8848. 4517. <
11830 1 5 7 -19 10785. 14279. 4757. o
11831 2 18 5 -19 8617. 8543. 5797. <
11831 1 6 7 19 8617. 8543. 5797. <
11832 2 18 5 19 8639. 12997. 6466. o
11832 1 6 7 -19 8639. 12997. 6466. o
11833 1 7 7 19 12280. 10801. 2931. o
11834 1 7 7 -19 12142. 13486. 3599. o
11835 1 8 7 19 2592. 8421. 3109. o
11836 1 8 7 -19 2637. 1648. 3356. <
11837 1 9 7 19 4571. 5858. 3356. <
11838 1 9 7 -19 4666. 6102. 3539. <
11839 2 16 6 19 3776. 8055. 4514. <
11839 1 10 7 -19 3776. 8055. 4514. <
11840 2 0 0 -20 57959. 52661. 4897. o
11840 1 0 0 20 57959. 52661. 4897. o
11841 2 0 0 20 57628. 53027. 5261. o
11841 1 0 0 -20 57628. 53027. 5261. o
11842 1 2 0 20 60519. 63706. 3708. o
11843 1 2 0 -20 60368. 58153. 3549. o
11844 2 -2 1 -20 86804. 82256. 3810. o
11844 1 4 0 20 86804. 82256. 3810. o
11845 2 -2 1 20 84788. 84514. 3785. o
11845 1 4 0 -20 84788. 84514. 3785. o
11846 1 6 0 20 5336. 1648. 3479. <
11847 1 6 0 -20 5396. 183. 3479. <
11848 2 -4 2 -20 67802. 64316. 5259. o
11848 1 8 0 20 67802. 64316. 5259. o
11849 2 -4 2 20 68201. 52539. 5233. o
11849 1 8 0 -20 68201. 52539. 5233. o
11850 1 10 0 20 36106. 25690. 5020. o
11851 1 10 0 -20 36525. 17635. 4481. o
11852 2 -6 3 -20 9035. 5614. 4639. <
11852 1 12 0 20 9035. 5614. 4639. <
11853 2 -6 3 20 8999. 12875. 4696. o
11853 1 12 0 -20 8999. 12875. 4696. o
11854 1 14 0 20 415. 1526. 4027. <
11855 2 -8 4 20 80436. 64682. 5183. o
11855 1 16 0 -20 80436. 64682. 5183. o
11856 1 18 0 20 4614. -610. 4211. <
11857 1 18 0 -20 4699. 10434. 3169. o
11858 2 -10 5 -20 6916. -610. 4516. <
11858 1 20 0 20 6916. -610. 4516. <
11859 2 -10 5 20 6770. 12692. 4451. o
11859 1 20 0 -20 6770. 12692. 4451. o
11860 1 22 0 20 62452. 47657. 3597. o
11861 1 22 0 -20 62715. 59556. 3675. o
11862 2 -12 6 -20 7092. 13058. 4023. o
11862 1 24 0 20 7092. 13058. 4023. o
11863 2 -12 6 20 7219. 6895. 2990. o
11863 1 24 0 -20 7219. 6895. 2990. o
11864 2 14 -5 -20 19196. 15194. 3240. o
11864 1 -22 1 20 19196. 15194. 3240. o
11865 2 14 -5 20 19831. 15865. 3362. o
11865 1 -22 1 -20 19831. 15865. 3362. o
11866 2 12 -4 -20 17059. 7139. 4522. <
11866 1 -18 1 20 17059. 7139. 4522. <
11867 2 12 -4 20 17190. 15011. 3237. o
11867 1 -18 1 -20 17190. 15011. 3237. o
11868 2 10 -3 -20 17659. 18123. 4271. o
11868 1 -14 1 20 17659. 18123. 4271. o
11869 2 10 -3 20 17458. 26056. 4810. o
11869 1 -14 1 -20 17458. 26056. 4810. o
11870 2 8 -2 -20 19914. 13547. 3242. o
11870 1 -10 1 20 19914. 13547. 3242. o
11871 2 8 -2 20 20580. 16292. 3423. o
11871 1 -10 1 -20 20580. 16292. 3423. o
11872 2 6 -1 -20 83083. 85795. 3828. o
11872 1 -6 1 20 83083. 85795. 3828. o
11873 2 6 -1 20 83130. 70418. 3910. o
11873 1 -6 1 -20 83130. 70418. 3910. o
11874 2 4 0 -20 52422. 57481. 3702. o
11874 1 -2 1 20 52422. 57481. 3702. o
11875 2 4 0 20 53888. 55834. 5853. o
11875 1 -2 1 -20 53888. 55834. 5853. o
11876 1 0 1 20 21889. 23310. 3659. o
11877 1 0 1 -20 21780. 19466. 3543. o
11878 1 1 1 20 4084. 7261. 2500. o
11879 1 1 1 -20 4110. 3600. 3051. <
11880 2 2 1 -20 43812. 55163. 3804. o
11880 1 2 1 20 43812. 55163. 3804. o
11881 2 2 1 20 44663. 34050. 4721. o
11881 1 2 1 -20 44663. 34050. 4721. o
11882 1 3 1 20 25627. 25262. 2503. o
11883 1 3 1 -20 25688. 28558. 2861. o
11884 1 4 1 20 1290. 4821. 2500. <
11885 1 4 1 -20 1410. 2319. 2502. <
11886 1 5 1 20 2130. 6346. 2500. o
11887 1 5 1 -20 2128. 3356. 2685. <
11888 2 0 2 -20 68745. 71882. 3645. o
11888 1 6 1 20 68745. 71882. 3645. o
11889 2 0 2 20 68784. 54186. 4868. o
11889 1 6 1 -20 68784. 54186. 4868. o
11890 1 7 1 20 7131. 9336. 2439. o
11891 1 7 1 -20 7135. 9153. 2744. o
11892 1 8 1 20 2201. 2685. 2868. <
11893 1 8 1 -20 2186. 6773. 2683. o
11894 1 9 1 20 7083. 6895. 2746. o
11895 1 9 1 -20 7061. 3173. 2382. <
11896 2 -2 3 -20 15482. 15438. 3356. o
11896 1 10 1 20 15482. 15438. 3356. o
11897 2 -2 3 20 16021. 12326. 3421. o
11897 1 10 1 -20 16021. 12326. 3421. o
11898 1 11 1 20 35381. 30571. 2640. o
11899 1 11 1 -20 35436. 22212. 2961. o
11900 1 12 1 20 7362. 6590. 3174. o
11901 1 12 1 -20 7276. 366. 2809. <
11902 1 13 1 20 1639. 5004. 3233. <
11903 1 13 1 -20 1643. -1098. 2685. <
11904 2 -4 4 -20 16569. 12936. 4762. o
11904 1 14 1 20 16569. 12936. 4762. o
11905 2 -4 4 20 16662. 9092. 4825. <
11905 1 14 1 -20 16662. 9092. 4825. <
11906 1 15 1 20 2760. 6224. 2561. o
11907 1 15 1 -20 2822. 4149. 2745. <
11908 1 16 1 20 8735. 5614. 2199. o
11909 1 16 1 -20 8824. 7078. 2625. o
11910 1 17 1 20 12976. 10434. 2200. o
11911 1 17 1 -20 13003. 12814. 2624. o
11912 2 -6 5 -20 22872. 13547. 3429. o
11912 1 18 1 20 22872. 13547. 3429. o
11913 2 -6 5 20 23018. 31182. 5052. o
11913 1 18 1 -20 23018. 31182. 5052. o
11914 1 19 1 20 15033. 13791. 2565. o
11915 1 19 1 -20 15117. 15194. 2746. o
11916 1 20 1 20 2071. 4027. 2196. <
11917 1 20 1 -20 2075. 5370. 2378. o
11918 1 21 1 20 2829. 8665. 2131. o
11919 1 21 1 -20 2871. 10679. 2250. o
11920 2 -8 6 -20 21769. 18123. 3362. o
11920 1 22 1 20 21769. 18123. 3362. o
11921 2 -8 6 20 22431. 10679. 4830. o
11921 1 22 1 -20 22431. 10679. 4830. o
11922 1 23 1 20 16215. 9641. 3423. o
11923 1 23 1 -20 16168. 14279. 2627. o
11924 1 24 1 20 913. 8909. 3230. o
11925 1 24 1 -20 912. 7384. 2315. o
11926 1 25 1 20 338. 5614. 3232. <
11927 1 25 1 -20 334. 7628. 2803. o
11928 2 18 -5 -20 3860. 10068. 4268. o
11928 1 -24 2 20 3860. 10068. 4268. o
11929 2 18 -5 20 3813. 8543. 3292. o
11929 1 -24 2 -20 3813. 8543. 3292. o
11930 2 16 -4 -20 30343. 22150. 4406. o
11930 1 -20 2 20 30343. 22150. 4406. o
11931 2 16 -4 20 30349. 28741. 3360. o
11931 1 -20 2 -20 30349. 28741. 3360. o
11932 2 14 -3 -20 51485. 37406. 4732. o
11932 1 -16 2 20 51485. 37406. 4732. o
11933 2 14 -3 20 50800. 48206. 4584. o
11933 1 -16 2 -20 50800. 48206. 4584. o
11934 2 12 -2 -20 7916. 11472. 3353. o
11934 1 -12 2 20 7916. 11472. 3353. o
11935 2 12 -2 20 7789. 5492. 5187. <
11935 1 -12 2 -20 7789. 5492. 5187. <
11936 2 10 -1 -20 31184. 16964. 4412. o
11936 1 -8 2 20 31184. 16964. 4412. o
11937 2 10 -1 20 30160. 18184. 5748. o
11937 1 -8 2 -20 30160. 18184. 5748. o
11938 2 8 0 -20 66573. 76581. 3855. o
11938 1 -4 2 20 66573. 76581. 3855. o
11939 2 8 0 20 66264. 58336. 4787. o
11939 1 -4 2 -20 66264. 58336. 4787. o
11940 2 6 1 -20 16242. 20259. 3595. o
11940 1 0 2 20 16242. 20259. 3595. o
11941 2 6 1 20 16326. 21967. 3531. o
11941 1 0 2 -20 16326. 21967. 3531. o
11942 1 1 2 20 2212. 61. 2502. <
11943 1 1 2 -20 2156. 5004. 2440. o
11944 1 2 2 20 8037. 7384. 2502. o
11945 1 2 2 -20 8127. 7933. 2502. o
11946 1 3 2 20 6275. 9763. 2560. o
11947 1 3 2 -20 6119. 6773. 2868. o
11948 2 4 2 -20 66092. 76825. 3851. o
11948 1 4 2 20 66092. 76825. 3851. o
11949 2 4 2 20 65908. 66452. 4086. o
11949 1 4 2 -20 65908. 66452. 4086. o
11950 1 5 2 20 6179. 6773. 2501. o
11951 1 5 2 -20 6271. 7017. 2562. o
11952 1 6 2 20 19882. 24286. 3470. o
11953 1 6 2 -20 20031. 16842. 2691. o
11954 1 7 2 20 3835. 5980. 3355. <
11955 1 7 2 -20 3843. 4271. 3112. <
11956 2 2 3 -20 29458. 25873. 6106. o
11956 1 8 2 20 29458. 25873. 6106. o
11957 2 2 3 20 28605. 29351. 3843. o
11957 1 8 2 -20 28605. 29351. 3843. o
11958 1 9 2 20 18333. 13424. 2449. o
11959 1 9 2 -20 17972. 13730. 2509. o
11960 1 10 2 20 85516. 70052. 2740. o
11961 1 10 2 -20 84954. 76276. 3290. o
11962 1 11 2 20 5165. 5370. 2380. o
11963 1 11 2 -20 5149. 9397. 3537. o
11964 2 0 4 -20 8774. 8848. 3173. o
11964 1 12 2 20 8774. 8848. 3173. o
11965 2 0 4 20 8619. 11045. 4819. o
11965 1 12 2 -20 8619. 11045. 4819. o
11966 1 13 2 20 7441. 4149. 2870. <
11967 1 13 2 -20 7333. 8299. 2867. o
11968 1 14 2 20 505. 4027. 3294. <
11969 1 14 2 -20 519. 3722. 4698. <
11970 1 15 2 20 1226. 5004. 3294. <
11971 1 15 2 -20 1227. 3295. 3173. <
11972 2 -2 5 -20 51434. 47596. 5196. o
11972 1 16 2 20 51434. 47596. 5196. o
11973 2 -2 5 20 50734. 34355. 4978. o
11973 1 16 2 -20 50734. 34355. 4978. o
11974 1 17 2 20 13675. 8848. 2568. o
11975 1 17 2 -20 13662. 13119. 2442. o
11976 1 18 2 20 1058. 2075. 2502. <
11977 1 18 2 -20 1058. 6956. 4697. <
11978 1 19 2 20 1837. 2197. 2258. <
11979 1 19 2 -20 1828. 2990. 4759. <
11980 2 -4 6 -20 25210. 22272. 3544. o
11980 1 20 2 20 25210. 22272. 3544. o
11981 2 -4 6 20 25178. 18001. 3611. o
11981 1 20 2 -20 25178. 18001. 3611. o
11982 1 21 2 20 625. 9946. 2617. o
11983 1 21 2 -20 632. 2929. 2379. <
11984 1 22 2 20 17791. 15133. 2811. o
11985 1 22 2 -20 17725. 14157. 2447. o
11986 1 23 2 20 602. 2319. 2318. <
11987 1 23 2 -20 593. 6834. 2743. o
11988 2 -6 7 -20 3352. 3722. 4393. <
11988 1 24 2 20 3352. 3722. 4393. <
11989 2 -6 7 20 3290. 6590. 5125. <
11989 1 24 2 -20 3290. 6590. 5125. <
11990 2 20 -4 -20 6769. 5248. 2930. <
11990 1 -22 3 20 6769. 5248. 2930. <
11991 2 20 -4 20 6965. 10068. 3232. o
11991 1 -22 3 -20 6965. 10068. 3232. o
11992 2 18 -3 -20 32435. 28375. 3487. o
11992 1 -18 3 20 32435. 28375. 3487. o
11993 2 18 -3 20 32579. 30144. 3423. o
11993 1 -18 3 -20 32579. 30144. 3423. o
11994 2 16 -2 -20 18461. 10496. 3486. o
11994 1 -14 3 20 18461. 10496. 3486. o
11995 2 16 -2 20 18793. 17757. 5310. o
11995 1 -14 3 -20 18793. 17757. 5310. o
11996 2 14 -1 -20 40266. 38260. 3606. o
11996 1 -10 3 20 40266. 38260. 3606. o
11997 2 14 -1 20 41091. 38382. 5680. o
11997 1 -10 3 -20 41091. 38382. 5680. o
11998 2 12 0 -20 19643. 13852. 4521. o
11998 1 -6 3 20 19643. 13852. 4521. o
11999 2 12 0 20 19468. 12875. 3608. o
11999 1 -6 3 -20 19468. 12875. 3608. o
12000 2 10 1 -20 9946. 12143. 3659. o
12000 1 -2 3 20 9946. 12143. 3659. o
12001 2 10 1 20 9514. 4271. 4700. <
12001 1 -2 3 -20 9514. 4271. 4700. <
12002 1 0 3 20 5434. 5919. 3661. <
12003 1 0 3 -20 5383. 3661. 3662. <
12004 1 1 3 20 3281. 5980. 2745. o
12005 1 1 3 -20 3370. 1953. 2563. <
12006 2 8 2 -20 12648. 27520. 5720. o
12006 1 2 3 20 12648. 27520. 5720. o
12007 2 8 2 20 12513. 12204. 3723. o
12007 1 2 3 -20 12513. 12204. 3723. o
12008 1 3 3 20 13392. 18245. 3105. o
12009 1 3 3 -20 13854. 11716. 3785. o
12010 1 4 3 20 8683. 11289. 2621. o
12011 1 4 3 -20 8844. -183. 3846. <
12012 1 5 3 20 145. 1037. 2624. <
12013 1 5 3 -20 144. 3112. 3600. <
12014 2 6 3 -20 22514. 17879. 3911. o
12014 1 6 3 20 22514. 17879. 3911. o
12015 2 6 3 20 22364. 13364. 5194. o
12015 1 6 3 -20 22364. 13364. 5194. o
12016 1 7 3 20 44539. 35636. 3686. o
12017 1 7 3 -20 44505. 36795. 3441. o
12018 1 8 3 20 11006. 6773. 2932. o
12019 1 8 3 -20 10944. 9092. 3663. o
12020 1 9 3 20 13021. 13302. 2501. o
12021 1 9 3 -20 13163. 11777. 2870. o
12022 2 4 4 -20 45595. 43691. 3546. o
12022 1 10 3 20 45595. 43691. 3546. o
12023 2 4 4 20 46532. 41921. 4101. o
12023 1 10 3 -20 46532. 41921. 4101. o
12024 1 11 3 20 12145. 11106. 2747. o
12025 1 11 3 -20 12090. 10007. 3724. o
12026 1 12 3 20 12919. 16781. 3229. o
12027 1 12 3 -20 12842. 11716. 2869. o
12028 1 13 3 20 16753. 7628. 2877. o
12029 1 13 3 -20 16656. 18184. 3720. o
12030 2 2 5 -20 9623. 9702. 4515. o
12030 1 14 3 20 9623. 9702. 4515. o
12031 2 2 5 20 9759. 11228. 5003. o
12031 1 14 3 -20 9759. 11228. 5003. o
12032 1 15 3 20 8153. 8116. 3478. o
12033 1 15 3 -20 8199. 8177. 2441. o
12034 1 16 3 20 1415. 5980. 3477. <
12035 1 16 3 -20 1438. 5797. 2378. o
12036 1 17 3 20 2463. 7689. 3415. o
12037 1 17 3 -20 2498. 2685. 2807. <
12038 2 0 6 -20 26706. 19344. 4708. o
12038 1 18 3 20 26706. 19344. 4708. o
12039 2 0 6 20 26896. 18733. 5135. o
12039 1 18 3 -20 26896. 18733. 5135. o
12040 1 19 3 20 7162. 9519. 2805. o
12041 1 19 3 -20 7017. 9214. 2439. o
12042 1 20 3 20 1087. 9397. 3718. o
12043 1 20 3 -20 1100. 5675. 2439. o
12044 1 21 3 20 955. 10740. 3534. o
12045 1 21 3 -20 1013. 11716. 2737. o
12046 2 -2 7 -20 6783. 1342. 4944. <
12046 1 22 3 20 6783. 1342. 4944. <
12047 2 -2 7 20 6960. 18184. 5545. o
12047 1 22 3 -20 6960. 18184. 5545. o
12048 1 23 3 20 16060. 14157. 2688. o
12049 1 23 3 -20 16162. 12509. 2812. o
12050 2 22 -3 -20 5220. 4210. 3479. <
12050 1 -20 4 20 5220. 4210. 3479. <
12051 2 22 -3 20 5042. 8482. 3476. o
12051 1 -20 4 -20 5042. 8482. 3476. o
12052 2 20 -2 -20 36156. 20808. 5754. o
12052 1 -16 4 20 36156. 20808. 5754. o
12053 2 20 -2 20 35974. 39480. 3835. o
12053 1 -16 4 -20 35974. 39480. 3835. o
12054 2 18 -1 -20 4304. 1831. 3479. <
12054 1 -12 4 20 4304. 1831. 3479. <
12055 2 18 -1 20 4309. 7445. 5491. <
12055 1 -12 4 -20 4309. 7445. 5491. <
12056 2 16 0 -20 69288. 44057. 5737. o
12056 1 -8 4 20 69288. 44057. 5737. o
12057 2 16 0 20 69548. 57298. 4258. o
12057 1 -8 4 -20 69548. 57298. 4258. o
12058 2 14 1 -20 36526. 32097. 4037. o
12058 1 -4 4 20 36526. 32097. 4037. o
12059 2 14 1 20 35987. 21113. 4964. o
12059 1 -4 4 -20 35987. 21113. 4964. o
12060 2 12 2 -20 11764. 14279. 3659. o
12060 1 0 4 20 11764. 14279. 3659. o
12061 2 12 2 20 11772. 22272. 5543. o
12061 1 0 4 -20 11772. 22272. 5543. o
12062 1 1 4 20 12947. 16414. 3352. o
12063 1 1 4 -20 13076. 9153. 5677. <
12064 1 2 4 20 6164. -305. 3052. <
12065 1 2 4 -20 6065. 5919. 5553. <
12066 1 3 4 20 22565. 21784. 3114. o
12067 1 3 4 -20 21989. 22639. 3782. o
12068 2 10 3 -20 42936. 45704. 4141. o
12068 1 4 4 20 42936. 45704. 4141. o
12069 2 10 3 20 42216. 36734. 4345. o
12069 1 4 4 -20 42216. 36734. 4345. o
12070 1 5 4 20 10608. 8482. 2626. o
12071 1 5 4 -20 10438. 7567. 3236. o
12072 1 6 4 20 1217. 5309. 3050. <
12073 1 6 4 -20 1248. 610. 3539. <
12074 1 7 4 20 8380. 11655. 3109. o
12075 1 7 4 -20 8385. 10312. 3477. o
12076 2 8 4 -20 66333. 66940. 4086. o
12076 1 8 4 20 66333. 66940. 4086. o
12077 2 8 4 20 66471. 57970. 4546. o
12077 1 8 4 -20 66471. 57970. 4546. o
12078 1 9 4 20 16111. 12204. 4153. o
12079 1 9 4 -20 16246. 13547. 2811. o
12080 1 10 4 20 10011. 13302. 3780. o
12081 1 10 4 -20 9944. 10923. 2989. o
12082 1 11 4 20 3267. 2258. 2990. <
12083 1 11 4 -20 3288. 5370. 2928. <
12084 2 6 5 -20 6599. 13974. 4877. o
12084 1 12 4 20 6599. 13974. 4877. o
12085 2 6 5 20 6642. 9763. 5430. <
12085 1 12 4 -20 6642. 9763. 5430. <
12086 1 13 4 20 6311. 4516. 2991. <
12087 1 13 4 -20 6403. 11594. 3780. o
12088 1 14 4 20 811. 1342. 4638. <
12089 1 14 4 -20 821. 6102. 3476. <
12090 1 15 4 -20 16356. 16109. 2990. o
12091 2 4 6 -20 32589. 9763. 5450. <
12091 1 16 4 20 32589. 9763. 5450. <
12092 2 4 6 20 32403. 22272. 3802. o
12092 1 16 4 -20 32403. 22272. 3802. o
12093 1 17 4 20 13103. 12326. 2747. o
12094 1 17 4 -20 13110. 18794. 2614. o
12095 1 18 4 20 17585. 11106. 3546. o
12096 1 18 4 -20 17536. 12814. 2570. o
12097 1 19 4 20 244. 9336. 3474. o
12098 1 19 4 -20 270. 6712. 2560. o
12099 2 2 7 20 4597. 10557. 4024. o
12099 1 20 4 -20 4597. 10557. 4024. o
12100 1 21 4 20 8638. 10252. 5308. <
12101 1 21 4 -20 8477. 10190. 3050. o
12102 2 24 -2 -20 4357. 6651. 3416. <
12102 1 -18 5 20 4357. 6651. 3416. <
12103 2 24 -2 20 4288. 9397. 3597. o
12103 1 -18 5 -20 4288. 9397. 3597. o
12104 2 22 -1 -20 6166. 10068. 3537. o
12104 1 -14 5 20 6166. 10068. 3537. o
12105 2 22 -1 20 5965. 11228. 5001. o
12105 1 -14 5 -20 5965. 11228. 5001. o
12106 2 20 0 -20 9127. -854. 4944. <
12106 1 -10 5 20 9127. -854. 4944. <
12107 2 20 0 20 8981. 17574. 5730. o
12107 1 -10 5 -20 8981. 17574. 5730. o
12108 2 18 1 -20 31355. 29290. 4336. o
12108 1 -6 5 20 31355. 29290. 4336. o
12109 2 18 1 20 31288. 44301. 6447. o
12109 1 -6 5 -20 31288. 44301. 6447. o
12110 2 16 2 -20 18109. 13119. 5800. o
12110 1 -2 5 20 18109. 13119. 5800. o
12111 2 16 2 20 18511. 12448. 7143. <
12111 1 -2 5 -20 18511. 12448. 7143. <
12112 1 0 5 20 17391. 13974. 5738. o
12113 1 0 5 -20 17240. 12082. 4459. o
12114 1 1 5 20 8675. 10312. 3355. o
12115 1 1 5 -20 8766. 2929. 4517. <
12116 2 14 3 -20 9342. 18977. 4323. o
12116 1 2 5 20 9342. 18977. 4323. o
12117 2 14 3 20 9564. 15316. 5549. o
12117 1 2 5 -20 9564. 15316. 5549. o
12118 1 3 5 20 7710. 7567. 3417. o
12119 1 3 5 -20 7684. 6407. 3540. <
12120 1 4 5 20 6236. 3661. 3113. <
12121 1 4 5 -20 6320. 6163. 2929. o
12122 1 5 5 20 28449. 20747. 3249. o
12123 1 5 5 -20 28449. 27276. 3603. o
12124 2 12 4 -20 27854. 25262. 6227. o
12124 1 6 5 20 27854. 25262. 6227. o
12125 2 12 4 20 27809. 24042. 6472. o
12125 1 6 5 -20 27809. 24042. 6472. o
12126 1 7 5 20 25501. 14767. 4588. o
12127 1 7 5 -20 25460. 27276. 4329. o
12128 1 8 5 20 3763. 4943. 3966. <
12129 1 8 5 -20 3831. 9031. 3048. o
12130 1 9 5 20 8193. 2502. 3480. <
12131 1 9 5 -20 8415. 7384. 3052. o
12132 2 10 5 -20 9737. 12692. 5856. o
12132 1 10 5 20 9737. 12692. 5856. o
12133 2 10 5 20 9591. 12204. 5551. o
12133 1 10 5 -20 9591. 12204. 5551. o
12134 1 11 5 20 6245. 9885. 5246. <
12135 1 11 5 -20 6324. 12570. 3779. o
12136 1 12 5 20 9598. 12204. 5307. o
12137 1 12 5 -20 9640. 9153. 3051. o
12138 1 13 5 20 2576. 9824. 6100. <
12139 1 13 5 -20 2450. 7872. 3964. <
12140 2 8 6 20 4970. 9702. 4147. o
12140 1 14 5 -20 4970. 9702. 4147. o
12141 1 15 5 20 7166. 6346. 5431. <
12142 1 15 5 -20 7313. 8055. 2928. o
12143 1 16 5 20 6433. 14584. 5915. o
12144 1 16 5 -20 6465. 9702. 2988. o
12145 1 17 5 20 1063. 8604. 2925. o
12146 1 17 5 -20 1064. 8116. 3109. o
12147 2 6 7 -20 3983. 10374. 5184. <
12147 1 18 5 20 3983. 10374. 5184. <
12148 2 6 7 20 3903. 14035. 4692. o
12148 1 18 5 -20 3903. 14035. 4692. o
12149 2 24 0 -20 1581. 12509. 5670. o
12149 1 -12 6 20 1581. 12509. 5670. o
12150 2 24 0 20 1553. 10007. 5672. <
12150 1 -12 6 -20 1553. 10007. 5672. <
12151 2 22 1 -20 18224. 16781. 4151. o
12151 1 -8 6 20 18224. 16781. 4151. o
12152 2 22 1 20 17900. 24042. 5974. o
12152 1 -8 6 -20 17900. 24042. 5974. o
12153 2 20 2 -20 12069. 11472. 6102. <
12153 1 -4 6 20 12069. 11472. 6102. <
12154 2 20 2 20 12065. 13242. 7139. <
12154 1 -4 6 -20 12065. 13242. 7139. <
12155 2 18 3 -20 5940. 16354. 6951. o
12155 1 0 6 20 5940. 16354. 6951. o
12156 2 18 3 20 5873. 11655. 4085. o
12156 1 0 6 -20 5873. 11655. 4085. o
12157 1 1 6 20 14866. 6468. 4642. <
12158 1 1 6 -20 14897. 9885. 2934. o
12159 1 2 6 20 1580. 3966. 2867. <
12160 1 2 6 -20 1527. 4943. 2928. <
12161 1 3 6 20 12683. 11106. 3480. o
12162 1 3 6 -20 12748. 12326. 3051. o
12163 2 16 4 -20 13625. 12753. 6713. <
12163 1 4 6 20 13625. 12753. 6713. <
12164 2 16 4 20 13654. 11777. 4517. o
12164 1 4 6 -20 13654. 11777. 4517. o
12165 1 5 6 20 17921. 17818. 3661. o
12166 1 5 6 -20 18003. 17635. 4333. o
12167 1 6 6 20 11733. 12204. 3295. o
12168 1 6 6 -20 11688. 11472. 3967. o
12169 1 7 6 20 300. 7689. 3109. o
12170 1 7 6 -20 315. 8604. 3963. o
12171 2 14 5 -20 14493. 11045. 5799. <
12171 1 8 6 20 14493. 11045. 5799. <
12172 2 14 5 20 14317. 7689. 5495. <
12172 1 8 6 -20 14317. 7689. 5495. <
12173 1 9 6 20 28476. 15682. 3498. o
12174 1 9 6 -20 28013. 24713. 3667. o
12175 1 10 6 20 7191. 10068. 3293. o
12176 1 10 6 -20 7163. 12692. 3535. o
12177 1 11 6 20 4726. 10984. 5550. <
12178 1 11 6 -20 4705. 6651. 3416. <
12179 2 12 6 20 47. 9397. 4512. o
12179 1 12 6 -20 47. 9397. 4512. o
12180 1 13 6 20 224. 9702. 3168. o
12181 1 13 6 -20 234. 6102. 3354. <
12182 1 14 6 20 3598. 8726. 2865. o
12183 1 14 6 -20 3616. 8604. 2987. o
12184 2 24 2 -20 1917. 10190. 4451. o
12184 1 -6 7 20 1917. 10190. 4451. o
12185 2 24 2 20 1916. 6651. 4148. <
12185 1 -6 7 -20 1916. 6651. 4148. <
12186 2 22 3 -20 5175. 8604. 6284. <
12186 1 -2 7 20 5175. 8604. 6284. <
12187 2 22 3 20 5088. 4943. 4394. <
12187 1 -2 7 -20 5088. 4943. 4394. <
12188 1 0 7 20 16553. 13302. 6409. o
12189 1 0 7 -20 16566. 10984. 4459. o
12190 1 1 7 20 2498. 3966. 4698. <
12191 1 1 7 -20 2393. 4760. 3111. <
12192 2 20 4 -20 4671. 10434. 6710. <
12192 1 2 7 20 4671. 10434. 6710. <
12193 2 20 4 20 4649. 8909. 7016. <
12193 1 2 7 -20 4649. 8909. 7016. <
12194 1 3 7 20 1911. 6773. 2988. o
12195 1 3 7 -20 1984. 7933. 4697. <
12196 1 4 7 20 5809. 9275. 4636. <
12197 1 4 7 -20 5958. 7384. 4698. <
12198 1 5 7 20 10830. 6773. 4152. <
12199 1 5 7 -20 10678. 13547. 3659. o
12200 2 18 5 -20 2050. 8604. 3964. o
12200 1 6 7 20 2050. 8604. 3964. o
12201 2 18 5 20 2054. 13424. 4387. o
12201 1 6 7 -20 2054. 13424. 4387. o
12202 1 2 0 21 75966. 77374. 3653. o
12203 1 2 0 -21 75370. 60105. 3853. o
12204 2 -2 1 -21 30063. 35148. 3465. o
12204 1 4 0 21 30063. 35148. 3465. o
12205 2 -2 1 21 29534. 23371. 4951. o
12205 1 4 0 -21 29534. 23371. 4951. o
12206 1 6 0 21 54866. 51074. 3615. o
12207 1 6 0 -21 54553. 40640. 5522. o
12208 2 -4 2 -21 97862. 99891. 5849. o
12208 1 8 0 21 97862. 99891. 5849. o
12209 2 -4 2 21 98416. 69991. 5004. o
12209 1 8 0 -21 98416. 69991. 5004. o
12210 1 10 0 21 9527. 1342. 3298. <
12211 1 10 0 -21 9623. 3295. 3420. <
12212 2 -6 3 -21 7730. 5248. 3235. <
12212 1 12 0 21 7730. 5248. 3235. <
12213 1 14 0 21 17. 4027. 4271. <
12214 1 14 0 -21 22. 1403. 4821. <
12215 2 -8 4 -21 71637. 69808. 4950. o
12215 1 16 0 21 71637. 69808. 4950. o
12216 2 -8 4 21 71277. 58763. 5348. o
12216 1 16 0 -21 71277. 58763. 5348. o
12217 1 18 0 21 14837. 13119. 3236. o
12218 1 18 0 -21 14961. 13180. 4517. o
12219 2 -10 5 -21 33414. 20015. 3382. o
12219 1 20 0 21 33414. 20015. 3382. o
12220 2 -10 5 21 32980. 32768. 3540. o
12220 1 20 0 -21 32980. 32768. 3540. o
12221 1 22 0 21 8117. 2746. 4395. <
12222 1 22 0 -21 8066. 14157. 4633. o
12223 2 14 -5 -21 3168. 10068. 4818. o
12223 1 -22 1 21 3168. 10068. 4818. o
12224 2 14 -5 21 3187. 11350. 3228. o
12224 1 -22 1 -21 3187. 11350. 3228. o
12225 2 12 -4 -21 271. 4882. 3172. <
12225 1 -18 1 21 271. 4882. 3172. <
12226 2 12 -4 21 279. 1892. 4454. <
12226 1 -18 1 -21 279. 1892. 4454. <
12227 2 10 -3 -21 9314. 3539. 3907. <
12227 1 -14 1 21 9314. 3539. 3907. <
12228 2 8 -2 -21 18092. 10374. 4521. o
12228 1 -10 1 21 18092. 10374. 4521. o
12229 2 8 -2 21 18530. 19466. 5125. o
12229 1 -10 1 -21 18530. 19466. 5125. o
12230 2 6 -1 -21 4983. 6956. 3294. o
12230 1 -6 1 21 4983. 6956. 3294. o
12231 2 6 -1 21 4997. 3661. 5248. <
12231 1 -6 1 -21 4997. 3661. 5248. <
12232 2 4 0 -21 6498. 13424. 3472. o
12232 1 -2 1 21 6498. 13424. 3472. o
12233 2 4 0 21 6622. 1892. 3540. <
12233 1 -2 1 -21 6622. 1892. 3540. <
12234 1 1 1 21 2760. 3905. 2501. <
12235 1 1 1 -21 2721. 4149. 2501. <
12236 2 2 1 -21 205. -1709. 3478. <
12236 1 2 1 21 205. -1709. 3478. <
12237 2 2 1 21 214. 5431. 3477. <
12237 1 2 1 -21 214. 5431. 3477. <
12238 1 3 1 21 39389. 32829. 2647. o
12239 1 3 1 -21 39387. 31120. 2592. o
12240 1 4 1 21 6786. 10984. 2498. o
12241 1 4 1 -21 6870. 5126. 2442. o
12242 1 5 1 21 4674. 2319. 2320. <
12243 1 5 1 -21 4695. 6163. 2440. o
12244 1 6 1 21 4099. 11411. 5244. o
12245 1 6 1 -21 4117. 9702. 3414. o
12246 1 7 1 21 5349. 6224. 2867. o
12247 1 7 1 -21 5327. 2563. 2869. <
12248 1 8 1 21 15288. 12021. 2385. o
12249 1 8 1 -21 15402. 12692. 2750. o
12250 1 9 1 21 25387. 19527. 3488. o
12251 1 9 1 -21 25360. 15987. 3553. o
12252 2 -2 3 -21 14672. 7933. 4824. <
12252 1 10 1 21 14672. 7933. 4824. <
12253 2 -2 3 21 14899. 15560. 3538. o
12253 1 10 1 -21 14899. 15560. 3538. o
12254 1 11 1 21 6599. 3844. 3174. <
12255 1 11 1 -21 6597. 9336. 3415. o
12256 1 12 1 21 239. 4332. 3050. <
12257 1 12 1 -21 225. -1831. 3417. <
12258 1 13 1 21 1473. 5858. 2500. o
12259 1 13 1 -21 1482. 7933. 3292. o
12260 2 -4 4 -21 12141. 14401. 4941. o
12260 1 14 1 21 12141. 14401. 4941. o
12261 2 -4 4 21 12528. 7994. 4884. <
12261 1 14 1 -21 12528. 7994. 4884. <
12262 1 15 1 21 27006. 28619. 3230. o
12263 1 16 1 21 4957. 2929. 2442. <
12264 1 16 1 -21 4887. 5492. 4881. <
12265 1 17 1 21 5160. 6102. 2501. o
12266 1 17 1 -21 5221. 6651. 3416. <
12267 2 -6 5 -21 1272. 4332. 4332. <
12267 1 18 1 21 1272. 4332. 4332. <
12268 2 -6 5 21 1280. 14767. 4996. o
12268 1 18 1 -21 1280. 14767. 4996. o
12269 1 19 1 21 2384. 793. 2502. <
12270 1 19 1 -21 2376. 6834. 3232. o
12271 1 20 1 21 73. 5614. 3171. <
12272 1 20 1 -21 73. 4088. 2745. <
12273 1 21 1 21 1763. 2441. 2929. <
12274 1 21 1 -21 1766. 5004. 2806. <
12275 2 -8 6 -21 2655. 7567. 3232. o
12275 1 22 1 21 2655. 7567. 3232. o
12276 2 -8 6 21 2705. 8848. 4818. <
12276 1 22 1 -21 2705. 8848. 4818. <
12277 1 23 1 21 1145. 10740. 2310. o
12278 1 23 1 -21 1156. 6346. 2377. o
12279 2 16 -4 -21 36834. 22456. 3266. o
12279 1 -20 2 21 36834. 22456. 3266. o
12280 2 16 -4 21 36999. 30938. 3311. o
12280 1 -20 2 -21 36999. 30938. 3311. o
12281 2 14 -3 -21 13486. 14645. 3172. o
12281 1 -16 2 21 13486. 14645. 3172. o
12282 2 14 -3 21 13266. 11655. 5005. o
12282 1 -16 2 -21 13266. 11655. 5005. o
12283 2 12 -2 -21 7863. 10618. 3232. o
12283 1 -12 2 21 7863. 10618. 3232. o
12284 2 10 -1 -21 46574. 37833. 4415. o
12284 1 -8 2 21 46574. 37833. 4415. o
12285 2 10 -1 21 45910. 28192. 5460. o
12285 1 -8 2 -21 45910. 28192. 5460. o
12286 2 8 0 -21 111110. 112400. 3712. o
12286 1 -4 2 21 111110. 112400. 3712. o
12287 2 8 0 21 111181. 114231. 3943. o
12287 1 -4 2 -21 111181. 114231. 3943. o
12288 1 1 2 21 2426. 5126. 2989. <
12289 1 1 2 -21 2389. -671. 2502. <
12290 1 2 2 21 6674. 5187. 3052. <
12291 1 2 2 -21 6796. 6651. 2502. o
12292 1 3 2 21 5780. 6712. 3051. o
12293 1 3 2 -21 5758. 6407. 2501. o
12294 2 4 2 -21 114640. 120516. 4166. o
12294 1 4 2 21 114640. 120516. 4166. o
12295 2 4 2 21 114796. 103918. 4164. o
12295 1 4 2 -21 114796. 103918. 4164. o
12296 1 5 2 21 9151. 16354. 2859. o
12297 1 5 2 -21 9170. 4210. 2993. <
12298 1 6 2 21 32934. 26117. 3919. o
12299 1 6 2 -21 33044. 26605. 3128. o
12300 1 7 2 21 2554. 2014. 2868. <
12301 1 7 2 -21 2495. 1892. 2441. <
12302 2 2 3 -21 50696. 44179. 5446. o
12302 1 8 2 21 50696. 44179. 5446. o
12303 2 2 3 21 50016. 47169. 3793. o
12303 1 8 2 -21 50016. 47169. 3793. o
12304 1 9 2 21 2349. 5187. 4942. <
12305 1 9 2 -21 2346. 4027. 3478. <
12306 1 10 2 21 13343. 12204. 2869. o
12307 1 10 2 -21 13319. 12326. 3601. o
12308 1 11 2 21 1484. 1892. 2746. <
12309 1 11 2 -21 1509. 3722. 2867. <
12310 1 12 2 21 6485. 8238. 4942. <
12311 1 12 2 -21 6423. 9153. 4697. <
12312 1 13 2 21 1827. 4882. 2623. <
12313 1 13 2 -21 1850. 2197. 4576. <
12314 1 14 2 21 32984. 29412. 2453. o
12315 1 14 2 -21 32941. 22150. 4958. o
12316 1 15 2 21 6496. 1220. 3174. <
12317 1 15 2 -21 6513. 4210. 3296. <
12318 2 -2 5 21 14122. 10434. 5311. <
12318 1 16 2 -21 14122. 10434. 5311. <
12319 1 17 2 21 8759. 8848. 2624. o
12320 1 17 2 -21 8728. 9641. 3722. o
12321 1 18 2 21 10499. 17757. 2858. o
12322 1 18 2 -21 10446. 14035. 2436. o
12323 1 19 2 21 4752. 3234. 2685. <
12324 1 19 2 -21 4679. 10618. 2435. o
12325 2 -4 6 -21 36154. 24896. 3624. o
12325 1 20 2 21 36154. 24896. 3624. o
12326 2 -4 6 21 36333. 26422. 3865. o
12326 1 20 2 -21 36333. 26422. 3865. o
12327 1 21 2 21 10764. 8726. 2809. o
12328 1 21 2 -21 10750. 12204. 2683. o
12329 1 22 2 21 7379. 7445. 5065. <
12330 1 22 2 -21 7426. 11167. 2865. o
12331 2 18 -3 -21 530. 2502. 5248. <
12331 1 -18 3 21 530. 2502. 5248. <
12332 2 18 -3 21 528. -61. 3295. <
12332 1 -18 3 -21 528. -61. 3295. <
12333 2 16 -2 -21 3617. 5675. 5247. <
12333 1 -14 3 21 3617. 5675. 5247. <
12334 2 16 -2 21 3609. -1648. 5187. <
12334 1 -14 3 -21 3609. -1648. 5187. <
12335 2 14 -1 -21 8455. 8726. 3539. o
12335 1 -10 3 21 8455. 8726. 3539. o
12336 2 12 0 -21 13660. 11350. 5371. o
12336 1 -6 3 21 13660. 11350. 5371. o
12337 2 12 0 21 13610. 4760. 5251. <
12337 1 -6 3 -21 13610. 4760. 5251. <
12338 2 10 1 -21 29650. 33439. 3897. o
12338 1 -2 3 21 29650. 33439. 3897. o
12339 2 10 1 21 29967. 30022. 5492. o
12339 1 -2 3 -21 29967. 30022. 5492. o
12340 1 1 3 21 3210. 2197. 2502. <
12341 1 1 3 -21 3310. 7017. 2988. o
12342 2 8 2 -21 37183. 46254. 3817. o
12342 1 2 3 21 37183. 46254. 3817. o
12343 2 8 2 21 37695. 37467. 3723. o
12343 1 2 3 -21 37695. 37467. 3723. o
12344 1 3 3 21 20443. 21967. 2987. o
12345 1 3 3 -21 20403. 18794. 3724. o
12346 1 4 3 21 15969. 11899. 3848. o
12347 1 4 3 -21 16045. 13791. 2871. o
12348 1 5 3 21 1718. 793. 2990. <
12349 1 5 3 -21 1717. 7261. 2804. o
12350 2 6 3 -21 15259. 28008. 5232. o
12350 1 6 3 21 15259. 28008. 5232. o
12351 2 6 3 21 15229. 10984. 3604. o
12351 1 6 3 -21 15229. 10984. 3604. o
12352 1 7 3 21 11426. 10862. 3052. o
12353 1 7 3 -21 11446. 7750. 2993. o
12354 1 8 3 21 3566. -122. 3356. <
12355 1 8 3 -21 3597. 6956. 2988. o
12356 1 9 3 21 2374. 5553. 3294. <
12357 1 9 3 -21 2385. 6651. 3721. <
12358 2 4 4 -21 10906. 10496. 5126. o
12358 1 10 3 21 10906. 10496. 5126. o
12359 2 4 4 21 10776. 13974. 4757. o
12359 1 10 3 -21 10776. 13974. 4757. o
12360 1 11 3 21 5234. 3173. 3357. <
12361 1 11 3 -21 5251. -5004. 4820. <
12362 1 12 3 21 1000. 6712. 3537. <
12363 1 12 3 -21 1014. 3356. 2928. <
12364 1 13 3 21 6983. 9214. 2439. o
12365 1 13 3 -21 7031. 7994. 3600. o
12366 2 2 5 -21 1820. 6834. 4819. <
12366 1 14 3 21 1820. 6834. 4819. <
12367 2 2 5 21 1780. 6041. 4758. <
12367 1 14 3 -21 1780. 6041. 4758. <
12368 1 15 3 21 5978. 6346. 3478. <
12369 1 15 3 -21 5980. 2990. 3540. <
12370 1 16 3 21 360. 5492. 3355. <
12371 1 16 3 -21 354. 549. 2746. <
12372 1 17 3 21 5903. 11045. 2619. o
12373 1 17 3 -21 5758. 9702. 2559. o
12374 1 18 3 21 436. -2990. 5308. <
12375 1 18 3 -21 434. 5431. 3538. <
12376 1 19 3 21 837. 1342. 3661. <
12377 1 19 3 -21 833. 8787. 2680. o
12378 1 20 3 21 8032. 11838. 2803. o
12379 1 20 3 -21 8105. 13424. 2862. o
12380 1 21 3 21 2881. 6651. 3171. o
12381 1 21 3 -21 2872. 8726. 2742. o
12382 2 20 -2 -21 26423. 28619. 5855. o
12382 1 -16 4 21 26423. 28619. 5855. o
12383 2 20 -2 21 26522. 29229. 3717. o
12383 1 -16 4 -21 26522. 29229. 3717. o
12384 2 18 -1 -21 856. 2380. 3661. <
12384 1 -12 4 21 856. 2380. 3661. <
12385 2 18 -1 21 861. 12875. 5731. o
12385 1 -12 4 -21 861. 12875. 5731. o
12386 2 16 0 -21 41609. 38626. 5985. o
12386 1 -8 4 21 41609. 38626. 5985. o
12387 2 16 0 21 41708. 46620. 5970. o
12387 1 -8 4 -21 41708. 46620. 5970. o
12388 2 14 1 -21 21613. 16048. 3790. o
12388 1 -4 4 21 21613. 16048. 3790. o
12389 1 1 4 21 2062. 7689. 3109. o
12390 1 2 4 21 43819. 46803. 3406. o
12391 1 2 4 -21 43804. 37467. 3619. o
12392 1 3 4 21 9532. 11045. 3233. o
12393 1 3 4 -21 9613. 16414. 3471. o
12394 2 10 3 -21 21240. 20503. 5676. o
12394 1 4 4 21 21240. 20503. 5676. o
12395 2 10 3 21 21081. 14889. 5192. o
12395 1 4 4 -21 21081. 14889. 5192. o
12396 1 5 4 21 24310. 22272. 2811. o
12397 1 5 4 -21 24257. 20564. 5191. o
12398 1 6 4 21 6007. 4455. 3052. <
12399 1 6 4 -21 6048. -3600. 4149. <
12400 1 7 4 21 31711. 24713. 3250. o
12401 1 7 4 -21 31652. 32646. 4025. o
12402 2 8 4 -21 33547. 39236. 5482. o
12402 1 8 4 21 33547. 39236. 5482. o
12403 2 8 4 21 33565. 36978. 4386. o
12403 1 8 4 -21 33565. 36978. 4386. o
12404 1 9 4 21 8585. 5431. 4029. <
12405 1 9 4 -21 8618. 12936. 3291. o
12406 1 10 4 21 300. 4332. 2562. <
12407 1 10 4 -21 309. 5187. 3111. <
12408 1 11 4 21 840. 1892. 2624. <
12409 1 11 4 -21 819. 5309. 3294. <
12410 2 6 5 -21 2014. 1587. 4821. <
12410 1 12 4 21 2014. 1587. 4821. <
12411 2 6 5 21 2020. 7200. 5185. <
12411 1 12 4 -21 2020. 7200. 5185. <
12412 1 13 4 21 1332. 1709. 3783. <
12413 1 13 4 -21 1328. 5858. 3721. <
12414 1 14 4 21 2280. 3905. 5614. <
12415 1 14 4 -21 2331. 3478. 2868. <
12416 1 15 4 21 10179. 15133. 3534. o
12417 1 15 4 -21 10135. 16354. 3043. o
12418 2 4 6 -21 22897. 20137. 4580. o
12418 1 16 4 21 22897. 20137. 4580. o
12419 2 4 6 21 23022. 14157. 3977. o
12419 1 16 4 -21 23022. 14157. 3977. o
12420 1 17 4 21 2560. 9336. 3780. o
12421 1 17 4 -21 2582. 9031. 2742. o
12422 1 18 4 21 2110. 9397. 5306. <
12423 1 18 4 -21 2080. 15194. 3161. o
12424 1 19 4 21 198. 13913. 3713. o
12425 1 19 4 -21 185. 4638. 3721. <
12426 2 22 -1 -21 8466. 13730. 5428. o
12426 1 -14 5 21 8466. 13730. 5428. o
12427 2 22 -1 21 8537. 10068. 3843. o
12427 1 -14 5 -21 8537. 10068. 3843. o
12428 2 20 0 21 22740. 17635. 5375. o
12428 1 -10 5 -21 22740. 17635. 5375. o
12429 2 18 1 21 5507. 9641. 5246. <
12429 1 -6 5 -21 5507. 9641. 5246. <
12430 2 16 2 -21 7588. 4638. 6530. <
12430 1 -2 5 21 7588. 4638. 6530. <
12431 2 16 2 21 7557. 305. 6225. <
12431 1 -2 5 -21 7557. 305. 6225. <
12432 1 1 5 21 18381. 14828. 4275. o
12433 1 1 5 -21 18476. 14340. 4336. o
12434 2 14 3 -21 4945. 6407. 6102. <
12434 1 2 5 21 4945. 6407. 6102. <
12435 2 14 3 21 4877. 12448. 5366. o
12435 1 2 5 -21 4877. 12448. 5366. o
12436 1 3 5 21 3273. 5736. 3111. <
12437 1 3 5 -21 3202. 6590. 3233. o
12438 1 4 5 21 4016. 8421. 3476. o
12439 1 4 5 -21 4030. 4821. 3844. <
12440 1 5 5 21 3848. 10374. 3657. o
12441 1 5 5 -21 3869. 5553. 3783. <
12442 2 12 4 -21 5664. 6163. 5858. <
12442 1 6 5 21 5664. 6163. 5858. <
12443 2 12 4 21 5667. 9397. 5307. <
12443 1 6 5 -21 5667. 9397. 5307. <
12444 1 7 5 21 1624. 9397. 3902. o
12445 1 7 5 -21 1623. 7139. 4025. <
12446 1 8 5 21 6993. 9824. 4026. o
12447 1 8 5 -21 7013. 8055. 4027. <
12448 1 9 5 21 8835. 17391. 4019. o
12449 1 9 5 -21 8843. 9702. 3783. o
12450 2 10 5 -21 19830. 26361. 5301. o
12450 1 10 5 21 19830. 26361. 5301. o
12451 2 10 5 21 19846. 10312. 5620. <
12451 1 10 5 -21 19846. 10312. 5620. <
12452 1 11 5 21 3513. 3295. 3844. <
12453 1 11 5 -21 3560. 12387. 3350. o
12454 1 12 5 21 1000. 3539. 2989. <
12455 1 12 5 -21 981. 4638. 3233. <
12456 1 13 5 21 24. 12021. 3287. o
12457 1 13 5 -21 21. 10862. 3594. o
12458 2 8 6 -21 9417. 10068. 5308. <
12458 1 14 5 21 9417. 10068. 5308. <
12459 2 8 6 21 9510. 9458. 5248. <
12459 1 14 5 -21 9510. 9458. 5248. <
12460 1 15 5 21 406. 1098. 5492. <
12461 1 15 5 -21 390. 3661. 2745. <
12462 1 16 5 21 1668. 7445. 5673. <
12463 1 16 5 -21 1671. 8604. 3841. o
12464 2 22 1 21 6151. 18733. 6338. o
12464 1 -8 6 -21 6151. 18733. 6338. o
12465 2 20 2 -21 23272. 16048. 7327. o
12465 1 -4 6 21 23272. 16048. 7327. o
12466 2 20 2 21 23304. 22334. 6530. o
12466 1 -4 6 -21 23304. 22334. 6530. o
12467 1 1 6 21 2052. 1709. 4332. <
12468 1 1 6 -21 2045. 5797. 3782. <
12469 1 2 6 21 1730. 6956. 4453. <
12470 1 2 6 -21 1726. 5187. 3599. <
12471 1 3 6 21 16497. 11472. 4946. o
12472 1 3 6 -21 16389. 18123. 4636. o
12473 2 16 4 -21 20431. 21662. 4270. o
12473 1 4 6 21 20431. 21662. 4270. o
12474 2 16 4 21 20475. 19771. 6591. o
12474 1 4 6 -21 20475. 19771. 6591. o
12475 1 5 6 21 26194. 17513. 4282. o
12476 1 5 6 -21 26048. 12692. 3799. o
12477 1 6 6 21 425. 6224. 3293. <
12478 1 6 6 -21 408. 8116. 3597. o
12479 1 7 6 21 11011. 11716. 4637. o
12480 1 7 6 -21 11001. 13730. 3475. o
12481 2 14 5 -21 7687. 15987. 6158. o
12481 1 8 6 21 7687. 15987. 6158. o
12482 2 14 5 21 7602. 8543. 4149. o
12482 1 8 6 -21 7602. 8543. 4149. o
12483 1 9 6 21 121. 4210. 3477. <
12484 1 9 6 -21 124. 6041. 3598. <
12485 1 10 6 21 1228. 8665. 5978. <
12486 1 10 6 -21 1190. 8421. 3414. o
12487 1 11 6 21 490. 5126. 3294. <
12488 1 11 6 -21 477. 7017. 3537. <
12489 2 0 0 -22 37. 1953. 4698. <
12489 1 0 0 22 37. 1953. 4698. <
12490 2 0 0 22 38. 2929. 4637. <
12490 1 0 0 -22 38. 2929. 4637. <
12491 1 2 0 22 3755. -305. 4638. <
12492 1 2 0 -22 3766. 7567. 4575. <
12493 2 -2 1 -22 70178. 70540. 3476. o
12493 1 4 0 22 70178. 70540. 3476. o
12494 2 -2 1 22 70704. 63828. 3755. o
12494 1 4 0 -22 70704. 63828. 3755. o
12495 1 6 0 22 20532. 25018. 3470. o
12496 1 6 0 -22 20372. 18184. 4823. o
12497 2 -4 2 -22 35418. 40701. 5054. o
12497 1 8 0 22 35418. 40701. 5054. o
12498 2 -4 2 22 36648. 29900. 3556. o
12498 1 8 0 -22 36648. 29900. 3556. o
12499 1 10 0 22 4426. 3905. 4638. <
12500 1 10 0 -22 4505. 1220. 4577. <
12501 2 -6 3 -22 6806. 10984. 4452. o
12501 1 12 0 22 6806. 10984. 4452. o
12502 1 14 0 22 26381. 17574. 4587. o
12503 1 14 0 -22 26193. 21113. 4888. o
12504 2 -8 4 -22 48324. 44484. 4830. o
12504 1 16 0 22 48324. 44484. 4830. o
12505 2 -8 4 22 47420. 32890. 5094. o
12505 1 16 0 -22 47420. 32890. 5094. o
12506 1 18 0 22 27459. 19466. 4465. o
12507 1 18 0 -22 27264. 23493. 5192. o
12508 2 -10 5 -22 103744. 88541. 5259. o
12508 1 20 0 22 103744. 88541. 5259. o
12509 2 -10 5 22 104335. 86039. 5693. o
12509 1 20 0 -22 104335. 86039. 5693. o
12510 1 22 0 22 3159. 7811. 3171. o
12511 1 22 0 -22 3166. 9702. 4696. o
12512 2 12 -4 -22 18694. 10007. 4339. o
12512 1 -18 1 22 18694. 10007. 4339. o
12513 2 12 -4 22 18726. 14828. 4824. o
12513 1 -18 1 -22 18726. 14828. 4824. o
12514 2 10 -3 -22 47486. 36978. 4783. o
12514 1 -14 1 22 47486. 36978. 4783. o
12515 2 8 -2 -22 29317. 22150. 3309. o
12515 1 -10 1 22 29317. 22150. 3309. o
12516 2 8 -2 22 29076. 19160. 3556. o
12516 1 -10 1 -22 29076. 19160. 3556. o
12517 2 6 -1 -22 39783. 37650. 3545. o
12517 1 -6 1 22 39783. 37650. 3545. o
12518 2 6 -1 22 40002. 28558. 3506. o
12518 1 -6 1 -22 40002. 28558. 3506. o
12519 2 4 0 -22 62303. 62241. 5553. o
12519 1 -2 1 22 62303. 62241. 5553. o
12520 2 4 0 22 61916. 57420. 5200. o
12520 1 -2 1 -22 61916. 57420. 5200. o
12521 1 0 1 22 14710. 17696. 3169. o
12522 1 1 1 22 2109. 610. 2868. <
12523 1 1 1 -22 2141. 1220. 4455. <
12524 2 2 1 -22 59948. 71028. 3668. o
12524 1 2 1 22 59948. 71028. 3668. o
12525 2 2 1 22 59722. 62302. 5545. o
12525 1 2 1 -22 59722. 62302. 5545. o
12526 1 3 1 22 11667. 12326. 2379. o
12527 1 3 1 -22 11605. 5370. 2872. <
12528 1 4 1 22 785. 3844. 2318. <
12529 1 4 1 -22 757. -2563. 2806. <
12530 1 5 1 22 27649. 22883. 2879. o
12531 1 5 1 -22 27688. 28985. 3048. o
12532 2 0 2 -22 33809. 31120. 5191. o
12532 1 6 1 22 33809. 31120. 5191. o
12533 2 0 2 22 34153. 23798. 4897. o
12533 1 6 1 -22 34153. 23798. 4897. o
12534 1 7 1 22 6861. 5675. 2747. o
12535 1 7 1 -22 6890. 5248. 3418. <
12536 1 8 1 22 3985. -2319. 3295. <
12537 1 8 1 -22 4085. 4027. 2868. <
12538 1 9 1 22 8471. 12997. 2741. o
12539 1 9 1 -22 8436. 8604. 2746. o
12540 2 -2 3 -22 18203. 23066. 5181. o
12540 1 10 1 22 18203. 23066. 5181. o
12541 2 -2 3 22 18206. 10618. 4948. o
12541 1 10 1 -22 18206. 10618. 4948. o
12542 1 11 1 22 9859. 11045. 2745. o
12543 1 11 1 -22 9841. 11472. 3477. o
12544 1 12 1 22 224. 0. 2319. <
12545 1 12 1 -22 238. -2563. 4759. <
12546 1 13 1 22 1130. 2685. 3173. <
12547 1 13 1 -22 1158. -488. 3112. <
12548 2 -4 4 -22 47526. 28130. 5342. o
12548 1 14 1 22 47526. 28130. 5342. o
12549 1 15 1 22 16327. 11106. 2813. o
12550 1 15 1 -22 16381. 25629. 4931. o
12551 1 16 1 22 2262. 4882. 2257. o
12552 1 16 1 -22 2297. 6102. 3782. <
12553 1 17 1 22 4516. 9092. 2254. o
12554 1 17 1 -22 4540. 6041. 4637. <
12555 2 -6 5 -22 19093. 17452. 3419. o
12555 1 18 1 22 19093. 17452. 3419. o
12556 2 -6 5 22 19094. 6529. 4889. <
12556 1 18 1 -22 19094. 6529. 4889. <
12557 1 19 1 22 1544. 4393. 2623. <
12558 1 19 1 -22 1537. 4760. 2806. <
12559 1 20 1 22 7271. 7994. 2562. o
12560 1 20 1 -22 7334. 14889. 3410. o
12561 1 21 1 22 1170. 8177. 2253. o
12562 1 21 1 -22 1159. 6468. 2805. o
12563 2 16 -4 -22 19840. 14950. 4947. o
12563 1 -20 2 22 19840. 14950. 4947. o
12564 2 16 -4 22 20649. 14889. 3425. o
12564 1 -20 2 -22 20649. 14889. 3425. o
12565 2 14 -3 -22 31058. 7445. 5023. <
12565 1 -16 2 22 31058. 7445. 5023. <
12566 2 14 -3 22 31403. 37223. 4748. o
12566 1 -16 2 -22 31403. 37223. 4748. o
12567 2 12 -2 -22 1848. 61. 4394. <
12567 1 -12 2 22 1848. 61. 4394. <
12568 2 10 -1 -22 72982. 60777. 3899. o
12568 1 -8 2 22 72982. 60777. 3899. o
12569 2 10 -1 22 73875. 70601. 5930. o
12569 1 -8 2 -22 73875. 70601. 5930. o
12570 2 8 0 -22 34841. 32829. 4763. o
12570 1 -4 2 22 34841. 32829. 4763. o
12571 2 8 0 22 34591. 35514. 5612. o
12571 1 -4 2 -22 34591. 35514. 5612. o
12572 2 6 1 22 12167. 8970. 4700. <
12572 1 0 2 -22 12167. 8970. 4700. <
12573 1 1 2 22 5315. 793. 3540. <
12574 1 1 2 -22 5194. 5309. 4638. <
12575 1 2 2 22 10336. 5919. 2505. o
12576 1 2 2 -22 10284. 7445. 3602. o
12577 1 3 2 22 566. 6285. 2499. o
12578 1 3 2 -22 592. -854. 5370. <
12579 2 4 2 -22 34355. 35209. 3720. o
12579 1 4 2 22 34355. 35209. 3720. o
12580 2 4 2 22 34366. 34294. 3722. o
12580 1 4 2 -22 34366. 34294. 3722. o
12581 1 5 2 22 10968. 12448. 3538. o
12582 1 5 2 -22 11005. 9641. 2991. o
12583 1 6 2 22 21116. 21662. 3721. o
12584 1 6 2 -22 21012. 27154. 3038. o
12585 1 7 2 22 10622. 10557. 2929. o
12586 1 7 2 -22 10664. 6224. 3603. <
12587 2 2 3 -22 74065. 69136. 5752. o
12587 1 8 2 22 74065. 69136. 5752. o
12588 2 2 3 22 75003. 71699. 5077. o
12588 1 8 2 -22 75003. 71699. 5077. o
12589 1 9 2 22 2945. 1037. 2929. <
12590 1 9 2 -22 2939. -671. 2990. <
12591 1 10 2 22 4283. 2868. 2868. <
12592 1 10 2 -22 4209. 2929. 3478. <
12593 1 11 2 22 1411. 6590. 5918. <
12594 1 11 2 -22 1408. -4760. 3416. <
12595 2 0 4 -22 2042. 3905. 5064. <
12595 1 12 2 22 2042. 3905. 5064. <
12596 2 0 4 22 1946. 3112. 4759. <
12596 1 12 2 -22 1946. 3112. 4759. <
12597 1 13 2 22 1892. 5370. 2806. <
12598 1 13 2 -22 1841. 9397. 4635. o
12599 1 14 2 22 5276. 6346. 2928. o
12600 1 14 2 -22 5221. 5370. 5309. <
12601 1 15 2 22 4169. 9092. 2803. o
12602 1 15 2 -22 4176. 9763. 4635. o
12603 2 -2 5 -22 26629. 21906. 5010. o
12603 1 16 2 22 26629. 21906. 5010. o
12604 1 17 2 22 4920. 2563. 2747. <
12605 1 17 2 -22 4957. 13302. 2860. o
12606 1 18 2 22 11579. 15377. 2802. o
12607 1 18 2 -22 11675. 13242. 2622. o
12608 1 19 2 22 9927. 12448. 2804. o
12609 1 19 2 -22 10016. 11289. 2867. o
12610 2 -4 6 -22 16871. 12204. 3361. o
12610 1 20 2 22 16871. 12204. 3361. o
12611 2 -4 6 22 17591. 10679. 5435. <
12611 1 20 2 -22 17591. 10679. 5435. <
12612 1 21 2 22 296. 3478. 2928. <
12613 1 21 2 -22 306. 8848. 2863. o
12614 2 18 -3 -22 7881. 4821. 5310. <
12614 1 -18 3 22 7881. 4821. 5310. <
12615 2 18 -3 22 8009. 11472. 3353. o
12615 1 -18 3 -22 8009. 11472. 3353. o
12616 2 16 -2 22 42667. 40335. 5618. o
12616 1 -14 3 -22 42667. 40335. 5618. o
12617 2 14 -1 -22 26926. 24286. 3666. o
12617 1 -10 3 22 26926. 24286. 3666. o
12618 2 14 -1 22 26923. 26971. 5980. o
12618 1 -10 3 -22 26923. 26971. 5980. o
12619 2 12 0 -22 15977. 13669. 5737. o
12619 1 -6 3 22 15977. 13669. 5737. o
12620 2 12 0 22 16050. 12814. 3725. o
12620 1 -6 3 -22 16050. 12814. 3725. o
12621 2 10 1 -22 22348. 33195. 3638. o
12621 1 -2 3 22 22348. 33195. 3638. o
12622 2 10 1 22 22102. 28558. 5545. o
12622 1 -2 3 -22 22102. 28558. 5545. o
12623 1 0 3 22 9820. 8909. 5187. <
12624 1 1 3 22 7049. 4149. 2930. <
12625 1 1 3 -22 6775. 4516. 3479. <
12626 2 8 2 -22 34533. 48267. 3679. o
12626 1 2 3 22 34533. 48267. 3679. o
12627 2 8 2 22 34086. 37711. 4752. o
12627 1 2 3 -22 34086. 37711. 4752. o
12628 1 3 3 22 2052. 1464. 3051. <
12629 1 3 3 -22 2143. 5553. 2867. <
12630 1 4 3 22 2537. -671. 2868. <
12631 1 4 3 -22 2532. -1953. 3722. <
12632 1 5 3 22 6872. 7872. 2562. o
12633 1 5 3 -22 7010. 11655. 3780. o
12634 2 6 3 -22 18550. 8360. 6107. <
12634 1 6 3 22 18550. 8360. 6107. <
12635 2 6 3 22 18573. 15377. 3665. o
12635 1 6 3 -22 18573. 15377. 3665. o
12636 1 7 3 22 12381. 4943. 3909. <
12637 1 7 3 -22 12438. 13669. 3111. o
12638 1 8 3 22 2580. 427. 2990. <
12639 1 8 3 -22 2608. 10068. 4695. o
12640 1 9 3 22 3183. 4638. 2562. <
12641 2 4 4 -22 21567. 18855. 5311. o
12641 1 10 3 22 21567. 18855. 5311. o
12642 2 4 4 22 21270. 13424. 5681. o
12642 1 10 3 -22 21270. 13424. 5681. o
12643 1 11 3 22 13745. 14767. 3477. o
12644 1 11 3 -22 13787. 9214. 3726. o
12645 1 12 3 22 19447. 20686. 5002. o
12646 1 12 3 -22 19430. 17391. 5616. o
12647 1 13 3 -22 4476. 7017. 3599. <
12648 2 2 5 22 41445. 17086. 5097. o
12648 1 14 3 -22 41445. 17086. 5097. o
12649 1 15 3 22 12670. 14767. 2438. o
12650 1 15 3 -22 12528. 9946. 2932. o
12651 1 16 3 22 2174. 4088. 3295. <
12652 1 16 3 -22 2187. 5797. 2866. o
12653 1 17 3 22 1539. 5980. 3355. <
12654 1 17 3 -22 1497. 6346. 3354. <
12655 2 0 6 -22 8664. 17269. 4692. o
12655 1 18 3 22 8664. 17269. 4692. o
12656 2 0 6 22 8861. 5675. 5920. <
12656 1 18 3 -22 8861. 5675. 5920. <
12657 1 19 3 22 7159. 10129. 2743. o
12658 1 19 3 -22 7060. 10557. 2743. o
12659 2 20 -2 -22 21501. 18184. 5556. o
12659 1 -16 4 22 21501. 18184. 5556. o
12660 2 20 -2 22 20875. 32585. 6087. o
12660 1 -16 4 -22 20875. 32585. 6087. o
12661 2 18 -1 22 4801. 9763. 5429. <
12661 1 -12 4 -22 4801. 9763. 5429. <
12662 2 16 0 -22 20559. 18062. 5555. o
12662 1 -8 4 22 20559. 18062. 5555. o
12663 2 16 0 22 21083. 28070. 5789. o
12663 1 -8 4 -22 21083. 28070. 5789. o
12664 2 14 1 -22 26475. 25140. 5860. o
12664 1 -4 4 22 26475. 25140. 5860. o
12665 2 12 2 -22 2628. 1709. 5492. <
12665 1 0 4 22 2628. 1709. 5492. <
12666 2 12 2 22 2674. 4027. 5492. <
12666 1 0 4 -22 2674. 4027. 5492. <
12667 1 1 4 22 906. 4149. 3172. <
12668 1 1 4 -22 930. 6041. 3904. <
12669 1 2 4 22 9120. 3539. 2566. <
12670 1 2 4 -22 9176. 5614. 2626. o
12671 1 3 4 22 1129. 2258. 4149. <
12672 1 3 4 -22 1163. 5736. 3049. <
12673 2 10 3 -22 21081. 22395. 6223. o
12673 1 4 4 22 21081. 22395. 6223. o
12674 2 10 3 22 21532. 20564. 4090. o
12674 1 4 4 -22 21532. 20564. 4090. o
12675 1 5 4 22 25586. 16109. 3128. o
12676 1 5 4 -22 25846. 16598. 3674. o
12677 1 6 4 22 3102. 4271. 3051. <
12678 1 6 4 -22 3136. -427. 5248. <
12679 1 7 4 22 20970. 13852. 3304. o
12680 1 7 4 -22 21298. 15804. 3364. o
12681 2 8 4 -22 13317. 9763. 5067. <
12681 1 8 4 22 13317. 9763. 5067. <
12682 2 8 4 22 13589. 13608. 3844. o
12682 1 8 4 -22 13589. 13608. 3844. o
12683 1 9 4 22 1057. 2868. 3966. <
12684 1 9 4 -22 1051. 5004. 3904. <
12685 1 10 4 22 2281. 3478. 3417. <
12686 1 10 4 -22 2283. 12509. 5609. o
12687 1 11 4 22 87. 1831. 3234. <
12688 1 11 4 -22 100. 9031. 5428. <
12689 2 6 5 -22 1449. 2990. 3539. <
12689 1 12 4 22 1449. 2990. 3539. <
12690 2 6 5 22 1389. 10618. 5305. <
12690 1 12 4 -22 1389. 10618. 5305. <
12691 1 13 4 22 15111. 11106. 4640. o
12692 1 13 4 -22 15175. 7628. 3606. o
12693 1 14 4 22 3550. 9397. 3353. o
12694 1 14 4 -22 3550. 2929. 3051. <
12695 1 15 4 22 53. 2563. 4820. <
12696 1 15 4 -22 42. 7506. 3231. o
12697 2 4 6 -22 18676. 13547. 5435. o
12697 1 16 4 22 18676. 13547. 5435. o
12698 2 4 6 22 18214. 20442. 3963. o
12698 1 16 4 -22 18214. 20442. 3963. o
12699 1 17 4 22 14275. 14035. 2990. o
12700 1 17 4 -22 14008. 11960. 3297. o
12701 2 20 0 22 47622. 45399. 6168. o
12701 1 -10 5 -22 47622. 45399. 6168. o
12702 2 18 1 -22 6542. 8482. 5064. <
12702 1 -6 5 22 6542. 8482. 5064. <
12703 2 16 2 -22 22182. 23859. 6161. o
12703 1 -2 5 22 22182. 23859. 6161. o
12704 2 16 2 22 22002. 21540. 6164. o
12704 1 -2 5 -22 22002. 21540. 6164. o
12705 1 0 5 22 15558. 22700. 5485. o
12706 1 0 5 -22 15331. 13974. 6347. o
12707 1 1 5 22 7699. 11899. 3963. o
12708 1 1 5 -22 7879. 11350. 3475. o
12709 2 14 3 -22 25292. 25751. 5796. o
12709 1 2 5 22 25292. 25751. 5796. o
12710 2 14 3 22 25228. 23554. 3969. o
12710 1 2 5 -22 25228. 23554. 3969. o
12711 1 3 5 22 2800. 6956. 4270. <
12712 1 3 5 -22 2741. 7567. 3171. o
12713 1 4 5 22 1814. 10496. 3779. o
12714 1 4 5 -22 1777. 6224. 3904. <
12715 1 5 5 22 689. 6407. 3110. o
12716 1 5 5 -22 698. 10496. 5672. <
12717 2 12 4 -22 2755. 5553. 5552. <
12717 1 6 5 22 2755. 5553. 5552. <
12718 1 7 5 22 6529. 8177. 3966. o
12719 1 7 5 -22 6579. 13180. 5916. o
12720 1 8 5 22 3651. 3966. 3783. <
12721 1 8 5 -22 3652. 18062. 5238. o
12722 1 9 5 22 4505. 8177. 5552. <
12723 1 9 5 -22 4456. 10434. 3291. o
12724 2 10 5 -22 32038. 23981. 5502. o
12724 1 10 5 22 32038. 23981. 5502. o
12725 2 10 5 22 32296. 26910. 4403. o
12725 1 10 5 -22 32296. 26910. 4403. o
12726 1 11 5 22 3368. 7139. 5369. <
12727 1 11 5 -22 3178. 2929. 3661. <
12728 1 12 5 22 2407. 5553. 5064. <
12729 1 12 5 -22 2366. 6102. 4026. <
12730 1 13 5 22 3389. 8360. 3903. o
12731 1 13 5 -22 3307. 2258. 2990. <
12732 2 20 2 22 7047. 10434. 7871. <
12732 1 -4 6 -22 7047. 10434. 7871. <
12733 2 18 3 -22 11807. 13119. 6773. <
12733 1 0 6 22 11807. 13119. 6773. <
12734 2 18 3 22 11615. 20076. 7928. o
12734 1 0 6 -22 11615. 20076. 7928. o
12735 1 1 6 22 2329. 5126. 4820. <
12736 1 1 6 -22 2289. 3112. 5065. <
12737 1 2 6 22 766. 2746. 6895. <
12738 1 2 6 -22 762. 8055. 4574. <
12739 1 3 6 22 1389. 11106. 4022. o
12740 1 3 6 -22 1335. 8665. 3597. o
12741 2 16 4 -22 7395. 8848. 6712. <
12741 1 4 6 22 7395. 8848. 6712. <
12742 2 16 4 22 7439. 10007. 4453. o
12742 1 4 6 -22 7439. 10007. 4453. o
12743 1 5 6 -22 6350. 9214. 3782. o
12744 1 6 6 22 22364. 16781. 6960. o
12745 1 6 6 -22 22496. 14218. 4889. o
12746 1 7 6 22 24967. 11777. 4589. o
12747 1 7 6 -22 24892. 30571. 6889. o
12748 1 2 0 23 18711. 29534. 4866. o
12749 1 2 0 -23 19090. 18855. 4699. o
12750 2 -2 1 -23 51444. 58336. 3572. o
12750 1 4 0 23 51444. 58336. 3572. o
12751 2 -2 1 23 52217. 48878. 3552. o
12751 1 4 0 -23 52217. 48878. 3552. o
12752 1 6 0 23 50372. 55895. 5049. o
12753 2 -4 2 -23 9551. 8482. 4699. <
12753 1 8 0 23 9551. 8482. 4699. <
12754 2 -4 2 23 9506. -305. 4700. <
12754 1 8 0 -23 9506. -305. 4700. <
12755 1 10 0 23 37813. 36734. 4762. o
12756 1 10 0 -23 37794. 23920. 3508. o
12757 2 -6 3 -23 9732. 7689. 3114. o
12757 1 12 0 23 9732. 7689. 3114. o
12758 1 14 0 23 36879. 29412. 4712. o
12759 1 14 0 -23 36736. 28619. 5139. o
12760 1 18 0 23 7242. 8848. 3294. o
12761 1 18 0 -23 7274. 13547. 3534. o
12762 2 -10 5 -23 9807. 11716. 3354. o
12762 1 20 0 23 9807. 11716. 3354. o
12763 2 -10 5 23 10138. 15743. 5366. o
12763 1 20 0 -23 10138. 15743. 5366. o
12764 2 12 -4 -23 1280. 10984. 5061. o
12764 1 -18 1 23 1280. 10984. 5061. o
12765 2 12 -4 23 1282. 6834. 3598. <
12765 1 -18 1 -23 1282. 6834. 3598. <
12766 2 10 -3 -23 46017. 29595. 4913. o
12766 1 -14 1 23 46017. 29595. 4913. o
12767 2 8 -2 23 50638. 47596. 5133. o
12767 1 -10 1 -23 50638. 47596. 5133. o
12768 2 6 -1 -23 5644. 8299. 4636. <
12768 1 -6 1 23 5644. 8299. 4636. <
12769 2 4 0 -23 74475. 66024. 3824. o
12769 1 -2 1 23 74475. 66024. 3824. o
12770 2 4 0 23 73953. 81829. 3677. o
12770 1 -2 1 -23 73953. 81829. 3677. o
12771 1 1 1 23 139. 854. 3356. <
12772 1 1 1 -23 141. 6041. 4697. <
12773 2 2 1 -23 80480. 72981. 5276. o
12773 1 2 1 23 80480. 72981. 5276. o
12774 2 2 1 23 80188. 91775. 5688. o
12774 1 2 1 -23 80188. 91775. 5688. o
12775 1 3 1 23 4574. 2197. 2686. <
12776 1 3 1 -23 4530. 8055. 2805. o
12777 1 4 1 23 1216. 3539. 2745. <
12778 1 4 1 -23 1247. 1770. 3295. <
12779 1 5 1 23 16178. 15865. 3479. o
12780 1 5 1 -23 16178. 13058. 2811. o
12781 1 6 1 23 4646. 3295. 3479. <
12782 1 6 1 -23 4649. 1526. 4760. <
12783 1 7 1 23 17736. 14950. 2872. o
12784 1 7 1 -23 17803. 14462. 3604. o
12785 1 8 1 23 7109. 9519. 3416. o
12786 1 8 1 -23 7285. 7139. 5553. <
12787 1 9 1 23 2429. 8299. 5002. <
12788 1 9 1 -23 2432. 2441. 3539. <
12789 2 -2 3 -23 52743. 51196. 5740. o
12789 1 10 1 23 52743. 51196. 5740. o
12790 1 11 1 23 5497. 2502. 3540. <
12791 1 11 1 -23 5474. 6346. 3356. <
12792 1 12 1 23 1812. 2136. 2624. <
12793 1 12 1 -23 1871. 2807. 2807. <
12794 1 13 1 23 4624. 9824. 3292. o
12795 1 13 1 -23 4607. 8299. 4697. <
12796 2 -4 4 -23 36822. 25385. 3443. o
12796 1 14 1 23 36822. 25385. 3443. o
12797 1 15 1 23 858. 4393. 2195. <
12798 1 15 1 -23 866. 11838. 3655. o
12799 1 16 1 23 1533. 4455. 2318. <
12800 1 16 1 -23 1511. 16048. 5056. o
12801 1 17 1 23 1454. 4149. 3478. <
12802 1 17 1 -23 1450. 6407. 4636. <
12803 2 -6 5 -23 4650. 15804. 4874. o
12803 1 18 1 23 4650. 15804. 4874. o
12804 1 19 1 23 18258. 12936. 2754. o
12805 1 19 1 -23 18177. 10374. 3547. o
12806 1 20 1 23 994. 1281. 2685. <
12807 1 20 1 -23 995. 7811. 4757. <
12808 2 14 -3 -23 17142. 10190. 5008. o
12808 1 -16 2 23 17142. 10190. 5008. o
12809 2 14 -3 23 17607. 13669. 4580. o
12809 1 -16 2 -23 17607. 13669. 4580. o
12810 2 12 -2 -23 3989. 6163. 4332. <
12810 1 -12 2 23 3989. 6163. 4332. <
12811 2 10 -1 -23 34748. 36612. 3779. o
12811 1 -8 2 23 34748. 36612. 3779. o
12812 2 8 0 -23 15142. 15865. 5430. o
12812 1 -4 2 23 15142. 15865. 5430. o
12813 2 8 0 23 14522. 7261. 5617. <
12813 1 -4 2 -23 14522. 7261. 5617. <
12814 1 1 2 23 9904. 14340. 4756. o
12815 1 1 2 -23 9767. 6834. 3663. <
12816 1 2 2 23 57385. 47901. 5272. o
12817 1 2 2 -23 57085. 58702. 5854. o
12818 1 3 2 23 2601. 6651. 3599. <
12819 1 3 2 -23 2577. 4027. 2990. <
12820 2 4 2 -23 16542. 18306. 5612. o
12820 1 4 2 23 16542. 18306. 5612. o
12821 2 4 2 23 16024. 14767. 3724. o
12821 1 4 2 -23 16024. 14767. 3724. o
12822 1 5 2 23 629. 2380. 2990. <
12823 1 5 2 -23 634. 3722. 4759. <
12824 1 6 2 23 25756. 26239. 2928. o
12825 1 6 2 -23 25842. 15316. 4892. o
12826 1 7 2 23 3966. 3783. 3478. <
12827 2 2 3 -23 32432. 25446. 5684. o
12827 1 8 2 23 32432. 25446. 5684. o
12828 1 9 2 23 17521. 18611. 3538. o
12829 1 9 2 -23 17670. 11899. 5435. o
12830 1 10 2 23 5080. 9885. 5429. <
12831 1 10 2 -23 5087. 10312. 3597. o
12832 1 11 2 23 242. 4577. 5430. <
12833 1 11 2 -23 243. 7322. 4574. <
12834 1 12 2 23 3288. 4332. 5248. <
12835 1 12 2 -23 3267. 2868. 4516. <
12836 1 13 2 23 327. 6102. 2683. o
12837 1 13 2 -23 331. 6346. 3598. <
12838 1 14 2 23 2577. 10190. 3413. o
12839 1 14 2 -23 2577. 5675. 4698. <
12840 1 15 2 23 3101. 15377. 3529. o
12841 1 15 2 -23 3143. 6651. 4575. <
12842 2 -2 5 -23 16767. 9885. 3424. o
12842 1 16 2 23 16767. 9885. 3424. o
12843 1 17 2 23 5369. 9519. 2804. o
12844 1 17 2 -23 5474. 7811. 2500. o
12845 1 18 2 23 16103. 14523. 3419. o
12846 1 18 2 -23 16082. 14584. 2931. o
12847 1 19 2 23 1322. 14401. 3468. o
12848 1 19 2 -23 1363. 9397. 3413. o
12849 2 16 -2 -23 30437. 26666. 4644. o
12849 1 -14 3 23 30437. 26666. 4644. o
12850 2 16 -2 23 30096. 19466. 3800. o
12850 1 -14 3 -23 30096. 19466. 3800. o
12851 2 14 -1 -23 65852. 61326. 5201. o
12851 1 -10 3 23 65852. 61326. 5201. o
12852 2 14 -1 23 66172. 18611. 5150. o
12852 1 -10 3 -23 66172. 18611. 5150. o
12853 2 12 0 -23 15575. 9641. 3666. o
12853 1 -6 3 23 15575. 9641. 3666. o
12854 2 12 0 23 15551. 8482. 5922. <
12854 1 -6 3 -23 15551. 8482. 5922. <
12855 2 10 1 -23 44555. 38992. 3921. o
12855 1 -2 3 23 44555. 38992. 3921. o
12856 2 10 1 23 44151. 34843. 5144. o
12856 1 -2 3 -23 44151. 34843. 5144. o
12857 1 1 3 23 5305. 5675. 3051. <
12858 1 1 3 -23 5287. 9397. 3170. o
12859 2 8 2 -23 40331. 33683. 3800. o
12859 1 2 3 23 40331. 33683. 3800. o
12860 2 8 2 23 39798. 38992. 5066. o
12860 1 2 3 -23 39798. 38992. 5066. o
12861 1 3 3 23 828. 6529. 3842. <
12862 1 3 3 -23 792. 11533. 4877. o
12863 1 4 3 23 8305. 7750. 4028. <
12864 1 5 3 23 2126. 3783. 2562. <
12865 1 5 3 -23 2182. 8238. 3597. o
12866 2 6 3 -23 17172. 21296. 5549. o
12866 1 6 3 23 17172. 21296. 5549. o
12867 2 6 3 23 17150. 28619. 5600. o
12867 1 6 3 -23 17150. 28619. 5600. o
12868 1 7 3 23 9854. 3539. 3054. <
12869 1 7 3 -23 9818. 5126. 3846. <
12870 1 8 3 23 845. 1526. 3905. <
12871 1 8 3 -23 819. 2685. 4759. <
12872 1 9 3 23 7038. 8848. 5796. <
12873 1 9 3 -23 7072. 10374. 3659. o
12874 2 4 4 -23 62237. 34233. 5792. o
12874 1 10 3 23 62237. 34233. 5792. o
12875 2 4 4 23 62422. 35819. 5549. o
12875 1 10 3 -23 62422. 35819. 5549. o
12876 1 11 3 23 2435. 5004. 3416. <
12877 1 11 3 -23 2347. 12082. 5488. o
12878 1 12 3 23 578. 6102. 4819. <
12879 1 13 3 23 18. 11716. 3593. o
12880 2 2 5 23 33239. 9275. 5330. <
12880 1 14 3 -23 33239. 9275. 5330. <
12881 1 15 3 23 10942. 12631. 3599. o
12882 1 15 3 -23 10916. 9824. 2808. o
12883 1 16 3 23 3182. -1281. 4760. <
12884 1 16 3 -23 3154. 8177. 2865. o
12885 1 17 3 23 1747. 4027. 5308. <
12886 1 17 3 -23 1767. 5004. 2867. <
12887 2 18 -1 -23 1043. 4882. 5552. <
12887 1 -12 4 23 1043. 4882. 5552. <
12888 2 18 -1 23 1058. 5187. 6223. <
12888 1 -12 4 -23 1058. 5187. 6223. <
12889 2 14 1 -23 22914. 26666. 5487. o
12889 1 -4 4 23 22914. 26666. 5487. o
12890 1 1 4 23 2653. 4088. 5125. <
12891 1 1 4 -23 2744. 8238. 4758. <
12892 1 2 4 23 2133. 5736. 5369. <
12893 1 2 4 -23 2049. 7689. 3598. o
12894 1 3 4 23 31291. 25934. 2639. o
12895 1 3 4 -23 31414. 22761. 3131. o
12896 2 10 3 -23 28480. 26666. 5433. o
12896 1 4 4 23 28480. 26666. 5433. o
12897 2 10 3 23 28815. 40090. 5594. o
12897 1 4 4 -23 28815. 40090. 5594. o
12898 1 5 4 23 13180. 6773. 3787. <
12899 1 6 4 23 12382. 10007. 3175. o
12900 1 7 4 23 1587. 6590. 3476. <
12901 1 7 4 -23 1568. 10618. 5244. o
12902 2 8 4 -23 1326. 4516. 5003. <
12902 1 8 4 23 1326. 4516. 5003. <
12903 2 8 4 23 1255. 5370. 3599. <
12903 1 8 4 -23 1255. 5370. 3599. <
12904 1 9 4 23 3256. 8421. 4086. o
12905 1 9 4 -23 3086. 4088. 5126. <
12906 1 10 4 23 19904. 7384. 2821. o
12907 1 10 4 -23 20008. 19100. 3846. o
12908 1 11 4 23 18148. 17452. 4943. o
12909 1 11 4 -23 17991. 15682. 3908. o
12910 2 6 5 -23 4345. 7567. 4881. <
12910 1 12 4 23 4345. 7567. 4881. <
12911 1 13 4 23 6550. 7689. 3050. o
12912 1 13 4 -23 6469. 8482. 5674. <
12913 1 14 4 23 5540. 8299. 5552. <
12914 1 14 4 -23 5520. 7628. 5735. <
12915 2 20 0 23 12375. 16537. 5306. o
12915 1 -10 5 -23 12375. 16537. 5306. o
12916 2 18 1 -23 16702. 10068. 5923. <
12916 1 -6 5 23 16702. 10068. 5923. <
12917 2 16 2 -23 28267. 23005. 5681. o
12917 1 -2 5 23 28267. 23005. 5681. o
12918 2 16 2 23 28294. 24591. 4521. o
12918 1 -2 5 -23 28294. 24591. 4521. o
12919 1 1 5 23 14626. 6956. 4215. <
12920 1 1 5 -23 14528. 12143. 3298. o
12921 2 14 3 -23 31716. 25751. 5744. o
12921 1 2 5 23 31716. 25751. 5744. o
12922 2 14 3 23 31884. 17086. 5629. o
12922 1 2 5 -23 31884. 17086. 5629. o
12923 1 3 5 23 18178. 11533. 5618. o
12924 1 3 5 -23 18103. 8421. 6595. <
12925 1 4 5 -23 4400. 6163. 5674. <
12926 1 5 5 -23 4943. 8787. 3903. o
12927 2 12 4 23 16648. 21113. 4083. o
12927 1 6 5 -23 16648. 21113. 4083. o
12928 1 7 5 23 2901. 3539. 5858. <
12929 1 7 5 -23 2975. 7078. 5247. <
12930 1 8 5 23 204. 5980. 3721. <
12931 1 8 5 -23 222. 9397. 3596. o
12932 1 9 5 23 4779. 10007. 5123. <
12933 1 9 5 -23 4648. 5980. 4210. <
12934 2 0 0 -24 196476. 218332. 6149. o
12934 1 0 0 24 196476. 218332. 6149. o
12935 1 2 0 24 10423. 18001. 4692. o
12936 2 -2 1 -24 19548. 13608. 4826. o
12936 1 4 0 24 19548. 13608. 4826. o
12937 1 6 0 24 6322. 11350. 4635. o
12938 1 6 0 -24 6255. 2990. 4821. <
12939 2 -4 2 -24 27184. 18794. 4831. o
12939 1 8 0 24 27184. 18794. 4831. o
12940 1 10 0 24 13486. 19282. 4632. o
12941 1 10 0 -24 13300. 7017. 4824. <
12942 2 -6 3 -24 75405. 62058. 5232. o
12942 1 12 0 24 75405. 62058. 5232. o
12943 2 -6 3 24 73593. 34416. 5702. o
12943 1 12 0 -24 73593. 34416. 5702. o
12944 1 14 0 24 10285. 10496. 4821. o
12945 2 -8 4 -24 11366. 10557. 4333. o
12945 1 16 0 24 11366. 10557. 4333. o
12946 1 18 0 24 1237. 7933. 3231. o
12947 1 18 0 -24 1230. 12570. 3532. o
12948 2 10 -3 -24 5082. 7750. 4698. <
12948 1 -14 1 24 5082. 7750. 4698. <
12949 2 8 -2 -24 11484. 12448. 4576. o
12949 1 -10 1 24 11484. 12448. 4576. o
12950 2 6 -1 -24 52729. 39053. 3584. o
12950 1 -6 1 24 52729. 39053. 3584. o
12951 2 6 -1 24 53453. 42165. 5031. o
12951 1 -6 1 -24 53453. 42165. 5031. o
12952 2 4 0 -24 18475. 15255. 3421. o
12952 1 -2 1 24 18475. 15255. 3421. o
12953 2 4 0 24 18420. 25690. 4872. o
12953 1 -2 1 -24 18420. 25690. 4872. o
12954 1 1 1 24 7541. 12265. 3413. o
12955 1 1 1 -24 7519. 3417. 3480. <
12956 2 2 1 -24 18144. 19405. 4819. o
12956 1 2 1 24 18144. 19405. 4819. o
12957 2 2 1 24 18120. 21967. 5366. o
12957 1 2 1 -24 18120. 21967. 5366. o
12958 1 3 1 24 10021. 11106. 2867. o
12959 1 3 1 -24 10010. 2990. 4823. <
12960 1 4 1 24 5553. 8848. 5185. <
12961 1 4 1 -24 5699. -854. 3357. <
12962 1 5 1 24 1208. 3173. 3478. <
12963 2 0 2 -24 62131. 69380. 5775. o
12963 1 6 1 24 62131. 69380. 5775. o
12964 1 7 1 24 22681. 19832. 2752. o
12965 1 7 1 -24 22589. 17757. 3485. o
12966 1 8 1 24 8794. 9214. 2807. o
12967 1 8 1 -24 8812. 13424. 4695. o
12968 1 9 1 24 5119. 7139. 3416. o
12969 1 9 1 -24 5117. 11106. 3474. o
12970 2 -2 3 -24 13870. 7933. 3361. o
12970 1 10 1 24 13870. 7933. 3361. o
12971 1 11 1 24 2938. 8360. 3537. o
12972 1 11 1 -24 2929. 6224. 4942. <
12973 1 12 1 24 694. 3722. 4759. <
12974 1 13 1 24 2616. 7322. 2804. o
12975 1 13 1 -24 2648. 3966. 4820. <
12976 2 -4 4 -24 4156. 10618. 4940. o
12976 1 14 1 24 4156. 10618. 4940. o
12977 1 15 1 24 2358. 7200. 2743. o
12978 1 15 1 -24 2344. 10984. 3717. o
12979 1 16 1 24 9147. 9885. 3539. o
12980 1 16 1 -24 9212. 9946. 3600. o
12981 1 17 1 24 1515. 15926. 5117. o
12982 1 17 1 -24 1536. 7689. 2743. o
12983 2 12 -2 -24 99340. 63828. 5502. o
12983 1 -12 2 24 99340. 63828. 5502. o
12984 2 10 -1 -24 5444. -1831. 3295. <
12984 1 -8 2 24 5444. -1831. 3295. <
12985 2 8 0 -24 15270. 13547. 3541. o
12985 1 -4 2 24 15270. 13547. 3541. o
12986 2 6 1 -24 99257. 102881. 5413. o
12986 1 0 2 24 99257. 102881. 5413. o
12987 2 6 1 24 97214. 114780. 5956. o
12987 1 0 2 -24 97214. 114780. 5956. o
12988 1 1 2 -24 3465. 9458. 3475. o
12989 1 2 2 24 6961. 11838. 5428. o
12990 1 3 2 24 900. 2319. 2746. <
12991 1 3 2 -24 900. 8055. 3536. o
12992 2 4 2 24 12032. 11167. 5004. o
12992 1 4 2 -24 12032. 11167. 5004. o
12993 1 5 2 -24 4094. 8909. 5246. <
12994 1 6 2 -24 1563. 8116. 5124. <
12995 1 7 2 24 174. 6468. 5124. <
12996 1 7 2 -24 180. 6712. 4819. <
12997 2 2 3 24 6137. 8787. 4697. <
12997 1 8 2 -24 6137. 8787. 4697. <
12998 1 9 2 24 2564. 5126. 2806. <
12999 1 9 2 -24 2593. 5126. 4637. <
13000 1 10 2 24 166. -3295. 5125. <
13001 1 10 2 -24 162. 4210. 5247. <
13002 1 11 2 24 3682. 11777. 5244. o
13003 2 0 4 -24 102120. 73530. 6445. o
13003 1 12 2 24 102120. 73530. 6445. o
13004 1 13 2 24 4650. 8848. 2865. o
13005 1 13 2 -24 4774. 6834. 2867. o
13006 1 14 2 24 21786. 4577. 5135. <
13007 1 14 2 -24 21886. 16476. 5253. o
13008 1 15 2 24 431. 1342. 4943. <
13009 2 -2 5 -24 12179. 9946. 5005. <
13009 1 16 2 24 12179. 9946. 5005. <
13010 2 -2 5 24 12238. 17574. 6098. o
13010 1 16 2 -24 12238. 17574. 6098. o
13011 2 16 -2 -24 16693. 19222. 4696. o
13011 1 -14 3 24 16693. 19222. 4696. o
13012 2 16 -2 24 16733. 19038. 5429. o
13012 1 -14 3 -24 16733. 19038. 5429. o
13013 2 12 0 -24 29274. 22822. 5622. o
13013 1 -6 3 24 29274. 22822. 5622. o
13014 2 10 1 -24 16440. 18306. 5795. o
13014 1 -2 3 24 16440. 18306. 5795. o
13015 1 0 3 24 406. 3173. 3661. <
13016 1 1 3 24 2261. 244. 4150. <
13017 1 1 3 -24 2288. 8909. 3658. o
13018 2 8 2 -24 14797. 16781. 5857. o
13018 1 2 3 24 14797. 16781. 5857. o
13019 2 8 2 24 14879. 13730. 3784. o
13019 1 2 3 -24 14879. 13730. 3784. o
13020 1 3 3 24 4494. 7994. 3049. o
13021 1 3 3 -24 4449. 12204. 5610. o
13022 1 4 3 24 16754. 17391. 5796. o
13023 1 5 3 24 17179. 17086. 5797. o
13024 1 5 3 -24 17255. 14950. 3786. o
13025 2 6 3 24 17488. 13364. 4763. o
13025 1 6 3 -24 17488. 13364. 4763. o
13026 1 7 3 24 9768. 10862. 3660. o
13027 1 7 3 -24 10032. 10679. 5553. <
13028 1 8 3 24 2813. 8238. 3842. o
13029 1 8 3 -24 2817. 11106. 5427. o
13030 1 9 3 24 6824. 8238. 3782. o
13031 1 9 3 -24 6815. 15133. 4998. o
13032 2 4 4 -24 4634. 12570. 5244. o
13032 1 10 3 24 4634. 12570. 5244. o
13033 2 4 4 24 4630. 8726. 4941. <
13033 1 10 3 -24 4630. 8726. 4941. <
13034 1 11 3 24 83. 5736. 2683. o
13035 1 11 3 -24 80. 8360. 3658. o
13036 1 12 3 24 3015. 5797. 3660. <
13037 1 12 3 -24 3020. 5553. 5125. <
13038 1 13 3 24 2050. -61. 5126. <
13039 1 13 3 -24 1995. 14279. 4814. o
13040 2 2 5 -24 15936. 12143. 5128. o
13040 1 14 3 24 15936. 12143. 5128. o
13041 2 16 0 -24 8465. 6834. 5553. <
13041 1 -8 4 24 8465. 6834. 5553. <
13042 2 16 0 24 8437. 9763. 6040. <
13042 1 -8 4 -24 8437. 9763. 6040. <
13043 2 14 1 -24 1162. 9092. 4879. <
13043 1 -4 4 24 1162. 9092. 4879. <
13044 2 14 1 24 1142. 2868. 5431. <
13044 1 -4 4 -24 1142. 2868. 5431. <
13045 2 12 2 -24 111981. 74750. 6601. o
13045 1 0 4 24 111981. 74750. 6601. o
13046 2 12 2 24 112338. 80303. 6587. o
13046 1 0 4 -24 112338. 80303. 6587. o
13047 1 1 4 24 17810. 16476. 3846. o
13048 1 1 4 -24 17943. 21662. 3778. o
13049 1 2 4 24 1554. 3173. 5309. <
13050 1 2 4 -24 1548. 5614. 5064. <
13051 1 3 4 24 5303. 6956. 5247. <
13052 2 10 3 -24 1253. 8421. 5246. <
13052 1 4 4 24 1253. 8421. 5246. <
13053 2 10 3 24 1246. -1526. 5248. <
13053 1 4 4 -24 1246. -1526. 5248. <
13054 1 5 4 24 1054. 12387. 5182. o
13055 1 5 4 -24 1048. 13119. 5303. o
13056 1 6 4 24 344. 2502. 4942. <
13057 1 6 4 -24 341. 5553. 3721. <
13058 1 7 4 24 5864. 5309. 2929. <
13059 1 7 4 -24 5855. 2929. 3052. <
13060 2 8 4 -24 7684. 9153. 4332. o
13060 1 8 4 24 7684. 9153. 4332. o
13061 1 9 4 24 242. 9519. 3779. o
13062 1 9 4 -24 258. 2807. 5980. <
13063 1 10 4 24 22154. 17208. 2573. o
13064 1 10 4 -24 22028. 17940. 3789. o
13065 1 11 4 24 448. 9702. 3779. o
13066 1 11 4 -24 387. 8787. 3963. o
13067 2 16 2 -24 9481. 15072. 5610. o
13067 1 -2 5 24 9481. 15072. 5610. o
13068 2 16 2 24 9422. 3783. 6286. <
13068 1 -2 5 -24 9422. 3783. 6286. <
13069 1 0 5 24 818. 6712. 5613. <
13070 1 0 5 -24 802. 4577. 6346. <
13071 1 1 5 24 1441. 3539. 5492. <
13072 1 1 5 -24 1433. 6041. 3293. <
13073 2 14 3 24 10228. 7017. 5798. <
13073 1 2 5 -24 10228. 7017. 5798. <
13074 1 3 5 24 14132. 8909. 3909. o
13075 1 3 5 -24 14155. 24469. 6276. o
13076 1 4 5 24 9098. 9031. 3905. o
13077 1 4 5 -24 9109. 15560. 3838. o
13078 1 5 5 24 8601. 13852. 5428. o
13079 1 5 5 -24 8472. 9092. 3783. o
13080 2 -2 1 25 11980. 16537. 4878. o
13080 1 4 0 -25 11980. 16537. 4878. o
13081 1 6 0 25 24183. 21601. 4824. o
13082 2 -4 2 -25 2967. 9092. 4696. <
13082 1 8 0 25 2967. 9092. 4696. <
13083 2 -4 2 25 2954. 10679. 4756. o
13083 1 8 0 -25 2954. 10679. 4756. o
13084 1 10 0 25 25204. 13669. 5075. o
13085 2 -6 3 -25 9258. 10190. 4820. o
13085 1 12 0 25 9258. 10190. 4820. o
13086 2 -6 3 25 9094. 12387. 5124. o
13086 1 12 0 -25 9094. 12387. 5124. o
13087 1 14 0 25 19141. 8177. 3306. o
13088 2 10 -3 -25 4068. 6712. 3294. o
13088 1 -14 1 25 4068. 6712. 3294. o
13089 2 8 -2 -25 10940. 8909. 3297. o
13089 1 -10 1 25 10940. 8909. 3297. o
13090 2 6 -1 -25 481. -6529. 4575. <
13090 1 -6 1 25 481. -6529. 4575. <
13091 2 4 0 -25 11939. 10434. 4944. o
13091 1 -2 1 25 11939. 10434. 4944. o
13092 1 1 1 25 9054. 18062. 3468. o
13093 1 1 1 -25 9044. 305. 5249. <
13094 2 2 1 -25 11937. 15316. 3536. o
13094 1 2 1 25 11937. 15316. 3536. o
13095 2 2 1 25 11972. 12082. 5309. o
13095 1 2 1 -25 11972. 12082. 5309. o
13096 1 3 1 25 1470. 5431. 5186. <
13097 1 3 1 -25 1444. 3905. 4820. <
13098 1 4 1 25 1641. 5675. 3416. <
13099 1 5 1 25 1317. 1098. 3356. <
13100 1 5 1 -25 1341. 5553. 4881. <
13101 1 6 1 25 393. 3173. 4942. <
13102 1 6 1 -25 409. 11045. 4755. o
13103 1 8 1 25 1786. 11838. 4205. o
13104 1 8 1 -25 1845. 4577. 5125. <
13105 1 9 1 25 10. 1342. 3295. <
13106 1 9 1 -25 12. 1281. 5004. <
13107 2 -2 3 25 10864. 13486. 4697. o
13107 1 10 1 -25 10864. 13486. 4697. o
13108 1 11 1 25 9951. 10374. 5187. <
13109 1 12 1 25 2594. 3722. 5187. <
13110 1 12 1 -25 2585. 15682. 5179. o
13111 1 13 1 25 4957. 4516. 3417. <
13112 2 -4 4 -25 3182. 1953. 5248. <
13112 1 14 1 25 3182. 1953. 5248. <
13113 2 -4 4 25 3181. 3539. 3478. <
13113 1 14 1 -25 3181. 3539. 3478. <
13114 1 15 1 25 6533. 11533. 3597. o
13115 1 15 1 -25 6483. 8604. 3599. o
13116 2 12 -2 25 32069. 16414. 4475. o
13116 1 -12 2 -25 32069. 16414. 4475. o
13117 2 8 0 25 2110. 12143. 5243. o
13117 1 -4 2 -25 2110. 12143. 5243. o
13118 1 2 2 25 23949. 23737. 3051. o
13119 1 3 2 25 5031. 9519. 5368. <
13120 1 3 2 -25 5026. 12326. 4572. o
13121 2 4 2 -25 1763. -1098. 5309. <
13121 1 4 2 25 1763. -1098. 5309. <
13122 1 5 2 25 1208. 15194. 5301. o
13123 1 6 2 25 20056. 17818. 3664. o
13124 1 6 2 -25 20055. 9885. 4889. o
13125 1 7 2 25 2899. 17086. 5300. o
13126 1 7 2 -25 2872. 6163. 5186. <
13127 2 2 3 -25 3782. 6346. 5369. <
13127 1 8 2 25 3782. 6346. 5369. <
13128 1 9 2 25 2079. 6346. 2866. o
13129 1 10 2 25 6951. 6407. 3356. <
13130 1 10 2 -25 6978. 9763. 4636. o
13131 1 11 2 25 5483. 7567. 3355. o
13132 1 12 2 25 26317. 19344. 5377. o
13133 1 13 2 25 1180. 9702. 3474. o
13134 2 10 1 -25 4699. 3295. 4760. <
13134 1 -2 3 25 4699. 3295. 4760. <
13135 1 1 3 25 5748. 9458. 3781. o
13136 2 8 2 -25 3171. 5370. 5369. <
13136 1 2 3 25 3171. 5370. 5369. <
13137 2 8 2 25 3189. 8543. 5490. <
13137 1 2 3 -25 3189. 8543. 5490. <
13138 1 3 3 25 5191. 8848. 5429. <
13139 1 4 3 25 3398. 2990. 5431. <
13140 1 5 3 25 1046. 5004. 2928. <
13141 1 5 3 -25 1078. 5370. 3660. <
13142 2 6 3 -25 2694. 8726. 5307. <
13142 1 6 3 25 2694. 8726. 5307. <
13143 1 7 3 25 1241. 9519. 5245. <
13144 1 7 3 -25 1294. 8665. 5612. <
13145 1 8 3 25 538. 8604. 3536. o
13146 1 8 3 -25 524. 10679. 2922. o
13147 1 9 3 25 964. 8177. 5429. <
13148 1 9 3 -25 939. 4516. 5064. <
13149 2 4 4 -25 8312. 10252. 5613. <
13149 1 10 3 25 8312. 10252. 5613. <
13150 1 11 3 25 4991. 6651. 3660. <
13151 1 11 3 -25 4979. 9214. 3659. o
13152 1 1 4 25 4516. 14645. 5120. o
13153 1 1 4 -25 4563. 7139. 5308. <
13154 1 2 4 25 2295. 5736. 5125. <
13155 1 2 4 -25 2294. 1037. 3783. <
13156 1 3 4 25 2940. 11594. 5061. o
13157 1 3 4 -25 3051. 3905. 5553. <
13158 1 5 4 25 8575. 10923. 5552. <
13159 1 5 4 -25 8547. 7200. 5004. <
13160 1 6 4 25 13059. 4393. 5922. <
13161 1 6 4 -25 13114. 17757. 5977. o
13162 2 -2 1 -26 24232. 29595. 5118. o
13162 1 4 0 26 24232. 29595. 5118. o
13163 2 -4 2 -26 5424. -61. 5004. <
13163 1 8 0 26 5424. -61. 5004. <
13164 1 10 0 -26 8107. 8177. 3661. o
13165 2 -6 3 -26 38085. 16720. 4606. o
13165 1 12 0 26 38085. 16720. 4606. o
13166 1 1 1 26 4517. 10434. 5367. <
13167 2 2 1 -26 10139. 11106. 3599. o
13167 1 2 1 26 10139. 11106. 3599. o
13168 2 2 1 26 9973. 16170. 4755. o
13168 1 2 1 -26 9973. 16170. 4755. o
13169 1 3 1 26 3023. 8360. 5307. <
13170 1 4 1 26 1140. 793. 5065. <
13171 1 5 1 -26 3261. 8177. 4697. <
13172 1 7 1 26 534. 7628. 3659. o
13173 1 8 1 26 874. 11472. 5060. o
13174 1 8 1 -26 862. 10557. 4756. o
13175 1 9 1 26 2999. 6834. 3599. <
13176 2 -2 3 -26 7277. 7017. 5187. <
13176 1 10 1 26 7277. 7017. 5187. <
13177 1 11 1 26 16806. 29168. 5171. o
13178 2 8 0 -26 3924. 8177. 4514. <
13178 1 -4 2 26 3924. 8177. 4514. <
13179 2 6 1 26 32675. 14218. 4781. o
13179 1 0 2 -26 32675. 14218. 4781. o
13180 1 1 2 26 1680. 5309. 3416. <
13181 1 2 2 26 7273. 10679. 3720. o
13182 1 3 2 26 2088. 7689. 5246. <
13183 2 4 2 -26 3539. 10557. 5123. o
13183 1 4 2 26 3539. 10557. 5123. o
13184 1 5 2 26 217. 6346. 5185. <
13185 1 6 2 -26 13853. 10068. 5494. <
13186 1 7 2 26 8312. 9641. 3477. o
13187 1 7 2 -26 8263. 10923. 5185. o
13188 2 2 3 26 17024. 17086. 5492. o
13188 1 8 2 -26 17024. 17086. 5492. o
13189 1 9 2 26 5817. 3051. 4272. <
13190 1 10 2 26 15007. 8970. 5190. <
13191 1 10 2 -26 14954. 12326. 5006. o
13192 2 12 0 -26 8425. 15987. 4937. o
13192 1 -6 3 26 8425. 15987. 4937. o
13193 2 12 0 26 8513. 8238. 5614. <
13193 1 -6 3 -26 8513. 8238. 5614. <
13194 1 0 3 26 1272. 6102. 5430. <
13195 1 1 3 26 1835. 15072. 5363. o
13196 2 8 2 -26 7316. 10984. 5612. <
13196 1 2 3 26 7316. 10984. 5612. <
13197 1 3 3 26 1947. -610. 5553. <
13198 1 4 3 -26 1309. 6285. 5186. <
13199 1 6 0 27 11571. 15133. 5062. o
13200 1 1 1 27 712. 9214. 5001. <
13201 2 2 1 -27 17332. 15926. 5310. o
13201 1 2 1 27 17332. 15926. 5310. o
13202 1 5 1 27 357. 6834. 5185. <
13203 1 6 1 27 601. 13547. 5242. o
13204 1 1 2 27 2055. 10252. 3473. o
13205 1 2 2 27 4143. 9824. 5184. <
13206 1 3 2 27 482. 15743. 5178. o
