####################################################################### 
# 
# This file contains crystal structure data downloaded from the 
# Cambridge Structural Database (CSD) hosted by the Cambridge 
# Crystallographic Data Centre (CCDC).
# 
# Full information about CCDC data access policies and citation 
# guidelines are available at http://www.ccdc.cam.ac.uk/access/V1 
# 
# Audit and citation data items may have been added by the CCDC. 
# Please retain this information to preserve the provenance of 
# this file and to allow appropriate attribution of the data. 
# 
#######################################################################

data_7.BA2MASn2I7_293K
_audit_block_doi                 10.5517/ccdc.csd.cc1ncdq4
_database_code_depnum_ccdc_archive 'CCDC 1530306'
loop_
_citation_id
_citation_doi
_citation_year
1 10.1021/acs.inorgchem.6b02764 2017
_audit_update_record             
;
2017-01-30 deposited with the CCDC.	2022-09-05 downloaded from the CCDC.
;
#=======================================================================

# 5. CHEMICAL DATA

_chemical_name_systematic        
; ?
;
_chemical_name_common            'Butylammonium Methylammonium Tin Iodide'
_chemical_formula_moiety         (C4H9NH3)2(CH3NH3)2Sn2I7)
_chemical_formula_structural     ?
_chemical_formula_analytical     ?
_chemical_formula_iupac          ?
_chemical_formula_sum            'C9 H30 I7 N3 Sn2'
_chemical_formula_weight         1306.1
_chemical_melting_point          ?
_chemical_compound_source        ?
_chemical_absolute_configuration ?

#=======================================================================

# 6. CRYSTAL DATA

_symmetry_cell_setting           orthorhombic
_symmetry_space_group_name_H-M   'A m a 2'
_symmetry_space_group_name_Hall  'A 2 -2a'
_symmetry_Int_Tables_number      40

loop_
_space_group_symop_id
_space_group_symop_operation_xyz
1 x,y,z
2 -x,-y,z
3 x+1/2,-y,z
4 -x+1/2,y,z
5 x,y+1/2,z+1/2
6 -x,-y+1/2,z+1/2
7 x+1/2,-y+1/2,z+1/2
8 -x+1/2,y+1/2,z+1/2

_cell_length_a                   8.7763(5)
_cell_length_b                   8.8581(5)
_cell_length_c                   39.497(3)
_cell_angle_alpha                90
_cell_angle_beta                 90
_cell_angle_gamma                90
_cell_volume                     3070.6(3)

loop_
_twin_individual_id
_twin_individual_mass_fraction_refined
_twin_individual_twin_matrix_11
_twin_individual_twin_matrix_12
_twin_individual_twin_matrix_13
_twin_individual_twin_matrix_21
_twin_individual_twin_matrix_22
_twin_individual_twin_matrix_23
_twin_individual_twin_matrix_31
_twin_individual_twin_matrix_32
_twin_individual_twin_matrix_33
1 0.8(3) 1 0 0 0 1 0 0 0 1
2 0.040(5) 0 1 0 1 0 0 0 0 -1
3 0.2(3) -1 0 0 0 -1 0 0 0 -1

_cell_formula_units_Z            4

_cell_measurement_reflns_used    6767
_cell_measurement_theta_min      2.77
_cell_measurement_theta_max      27.59
_cell_measurement_temperature    293
_cell_special_details            
; ?
;

_exptl_crystal_density_diffrn    2.8254
_exptl_crystal_density_meas      ?
_exptl_crystal_density_method    ?
_exptl_crystal_F_000             2304

_exptl_absorpt_coefficient_mu    8.664
_exptl_crystal_description       'Rectangular Plate'
_exptl_crystal_size_max          0.0945
_exptl_crystal_size_mid          0.0402
_exptl_crystal_size_min          0.0199
_exptl_crystal_size_rad          ?
_exptl_crystal_colour            Black
_exptl_absorpt_process_details   X-SHAPE
_exptl_absorpt_correction_type   integration
_exptl_absorpt_correction_T_min  0.3509
_exptl_absorpt_correction_T_max  0.7139
loop_
_exptl_crystal_face_index_h
_exptl_crystal_face_index_k
_exptl_crystal_face_index_l
_exptl_crystal_face_perp_dist
? ? ? ?

#=======================================================================

# 7. EXPERIMENTAL DATA

_exptl_special_details           ?

_diffrn_measurement_device       '2-circle goniometer'
_diffrn_measurement_device_type  'STOE IPDS 2T'
_diffrn_detector                 'image plate (34 cm diameter)'
_diffrn_detector_type            STOE
_diffrn_detector_area_resol_mean 6.67
_diffrn_source                   
'sealed X-ray tube, 12 x 0.4 mm long-fine focus'
_diffrn_source_voltage           40
_diffrn_source_current           30
_diffrn_source_power             1.20
_diffrn_radiation_type           'Mo K\a'
_diffrn_radiation_wavelength     0.71073
_diffrn_radiation_monochromator  'plane graphite'
_diffrn_radiation_polarisn_norm  0
_diffrn_radiation_collimation    '0.5 mm diameter, monocapillary'
_diffrn_ambient_temperature      293
_diffrn_measurement_method       'rotation method'
_diffrn_measurement_details      
; 180 frames, detector distance = 100 mm
;
_diffrn_reflns_number            14041
_diffrn_reflns_theta_min         2.77
_diffrn_reflns_theta_max         25.2
_diffrn_reflns_theta_full        29.2
_diffrn_measured_fraction_theta_max 0.99
_diffrn_measured_fraction_theta_full 0.99
_diffrn_reflns_av_R_equivalents  0.0357
_diffrn_reflns_av_unetI/netI     0.0348
_diffrn_reflns_limit_h_min       -12
_diffrn_reflns_limit_h_max       12
_diffrn_reflns_limit_k_min       -12
_diffrn_reflns_limit_k_max       10
_diffrn_reflns_limit_l_min       -46
_diffrn_reflns_limit_l_max       54
_diffrn_reflns_reduction_process ?

_diffrn_standards_number         ?
_diffrn_standards_interval_count ?
_diffrn_standards_interval_time  ?
_diffrn_standards_decay_%        ?
loop_
_diffrn_standard_refln_index_h
_diffrn_standard_refln_index_k
_diffrn_standard_refln_index_l
? ? ?

_diffrn_radiation_probe          X-ray

#=======================================================================

# 8. REFINEMENT DATA

_refine_special_details          
; Carbon and Nitrogen atoms were refined isotropically due to the 
  heavily disordered nature of the cations. The C-C and the C-N
  bond distances and the C-C-N and C-C-C bond angles were restrained 
  to 1.500(1) Angstrom and 109.50(1) degrees, respectively. The thermal
  parameters of the EA molecules were restrained so that each cation
  has the same Uiso.
;

_reflns_number_total             2603
_reflns_number_gt                1710
_reflns_threshold_expression     I>2\s(I)

_refine_ls_structure_factor_coef Fsqd
_refine_ls_R_factor_gt           0.0364
_refine_ls_wR_factor_gt          0.0772
_refine_ls_R_factor_all          0.0604
_refine_ls_wR_factor_ref         0.0796
_refine_ls_goodness_of_fit_ref   1.68
_refine_ls_goodness_of_fit_gt    2.03
_refine_ls_restrained_S_gt       ?
_refine_ls_restrained_S_all      ?
_refine_ls_number_reflns         2603
_refine_ls_number_parameters     80
_refine_ls_number_restraints     15
_refine_ls_number_constraints    130
_refine_ls_weighting_scheme      sigma
_refine_ls_weighting_details     w=1/(\s^2^(I)+0.0004I^2^)
_refine_ls_hydrogen_treatment    constr
_refine_ls_shift/su_max          0.0357
_refine_ls_shift/su_mean         0.0029
_refine_diff_density_max         1.50
_refine_diff_density_min         -1.07
_refine_ls_extinction_method     none
_refine_ls_extinction_coef       ?
_refine_ls_abs_structure_details 
;  1087 of Friedel pairs used in the refinement
;
_refine_ls_abs_structure_Flack   0.2(3)
_refine_ls_abs_structure_Rogers  ?

loop_
_atom_type_symbol
_atom_type_scat_dispersion_real
_atom_type_scat_dispersion_imag
_atom_type_scat_source
C 0.0033 0.0016 'International Tables Vol C tables 4.2.6.8 and 6.1.1.1'
H 0.0000 0.0000 'International Tables Vol C tables 4.2.6.8 and 6.1.1.1'
I -0.4742 1.8119 'International Tables Vol C tables 4.2.6.8 and 6.1.1.1'
N 0.0061 0.0033 'International Tables Vol C tables 4.2.6.8 and 6.1.1.1'
Sn -0.6537 1.4246 'International Tables Vol C tables 4.2.6.8 and 6.1.1.1'

_computing_data_collection       ?
_computing_cell_refinement       ?
_computing_data_reduction        ?
_computing_structure_solution    ?
_computing_structure_refinement  ?
_computing_molecular_graphics    ?
_computing_publication_material  ?

loop_
_restr_distance_atom_site_label_1
_restr_distance_site_symmetry_1
_restr_distance_atom_site_label_2
_restr_distance_site_symmetry_2
_restr_distance_target
_restr_distance_target_weight_param
C1 . N1 . 1.5 0.001
N2 . C2 . 1.5 0.001
C2 . C3 . 1.5 0.001
C3 . C4 . 1.5 0.001
C4 . C5 . 1.5 0.001
N3 . C6 . 1.5 0.001
C6 . C7 . 1.5 0.001
C7 . C8 . 1.5 0.001
C8 . C9 . 1.5 0.001

loop_
_restr_angle_atom_site_label_1
_restr_angle_site_symmetry_1
_restr_angle_atom_site_label_2
_restr_angle_site_symmetry_2
_restr_angle_atom_site_label_3
_restr_angle_site_symmetry_3
_restr_angle_target
_restr_angle_target_weight_param
N2 . C2 . C3 . 109.47 0.01
C2 . C3 . C4 . 109.47 0.01
C3 . C4 . C5 . 109.47 0.01
N3 . C6 . C7 . 109.47 0.01
C6 . C7 . C8 . 109.47 0.01
C7 . C8 . C9 . 109.47 0.01

loop_
_restr_torsion_atom_site_label_1
_restr_torsion_site_symmetry_1
_restr_torsion_atom_site_label_2
_restr_torsion_site_symmetry_2
_restr_torsion_atom_site_label_3
_restr_torsion_site_symmetry_3
_restr_torsion_atom_site_label_4
_restr_torsion_site_symmetry_4
_restr_torsion_angle_target
_restr_torsion_weight_param
? ? ? ? ? ? ? ? ? ?

loop_
_restr_equal_distance_atom_site_label_1
_restr_equal_distance_site_symmetry_1
_restr_equal_distance_atom_site_label_2
_restr_equal_distance_site_symmetry_2
_restr_equal_distance_class_class_id
_restr_equal_distance_class_target_weight_param
? ? ? ? ? ?

loop_
_restr_equal_angle_atom_site_label_1
_restr_equal_angle_site_symmetry_1
_restr_equal_angle_atom_site_label_2
_restr_equal_angle_site_symmetry_2
_restr_equal_angle_atom_site_label_3
_restr_equal_angle_site_symmetry_3
_restr_equal_angle_class_class_id
_restr_equal_angle_class_target_weight_param
? ? ? ? ? ? ? ?

loop_
_restr_equal_torsion_atom_site_label_1
_restr_equal_torsion_site_symmetry_1
_restr_equal_torsion_atom_site_label_2
_restr_equal_torsion_site_symmetry_2
_restr_equal_torsion_atom_site_label_3
_restr_equal_torsion_site_symmetry_3
_restr_equal_torsion_atom_site_label_4
_restr_equal_torsion_site_symmetry_4
_restr_equal_torsion_class_class_id
_restr_equal_torsion_class_target_weight_param
? ? ? ? ? ? ? ? ? ?


#=======================================================================

# 9. ATOMIC COORDINATES AND DISPLACEMENT PARAMETERS

loop_
_atom_site_label
_atom_site_type_symbol
_atom_site_fract_x
_atom_site_fract_y
_atom_site_fract_z
_atom_site_adp_type
_atom_site_U_iso_or_equiv
_atom_site_site_symmetry_multiplicity
_atom_site_occupancy
_atom_site_calc_flag
_atom_site_refinement_flags
_atom_site_disorder_assembly
_atom_site_disorder_group
Sn1 Sn 0.25 0.2511(3) 0.50137(10) Uani 0.0469(10) 4 1 d . . .
Sn2 Sn 0.25 0.2506(3) 0.66460(10) Uani 0.0488(11) 4 1 d . . .
I1 I 0.5 0 0.49532(11) Uani 0.0778(14) 4 1 d . . .
I2 I 0.5 0.5 0.51140(10) Uani 0.0875(18) 4 1 d . . .
I3 I 0.5 0.5 0.65551(10) Uani 0.0856(18) 4 1 d . . .
I4 I 0.5 0 0.66960(11) Uani 0.0937(16) 4 1 d . . .
I5 I 0.25 0.21084(17) 0.58139(13) Uani 0.0862(6) 4 1 d . . .
I6 I 0.25 0.3097(5) 0.73951(10) Uani 0.115(2) 4 1 d . . .
I7 I 0.25 0.3001(6) 0.42503(9) Uani 0.110(2) 4 1 d . . .
N1 N 0.25 0.800(4) 0.5958(14) Uiso 0.290(16) 4 1 d . . .
C1 C 0.25 0.695(5) 0.5660(15) Uiso 0.290(16) 4 1 d . . .
N2 N 0.25 0.703(5) 0.7135(7) Uiso 0.226(10) 4 1 d . . .
C2 C 0.25 0.826(4) 0.7396(7) Uiso 0.226(10) 4 1 d . . .
C3 C 0.25 0.757(3) 0.7743(6) Uiso 0.226(10) 4 1 d . . .
C4 C 0.25 0.881(3) 0.8004(7) Uiso 0.226(10) 4 1 d . . .
C5 C 0.25 0.812(4) 0.8351(7) Uiso 0.226(10) 4 1 d . . .
N3 N 0.25 0.715(9) 0.4584(11) Uiso 0.42(2) 4 1 d . . .
C6 C 0.25 0.689(7) 0.4209(12) Uiso 0.42(2) 4 1 d . . .
C7 C 0.25 0.838(6) 0.4029(10) Uiso 0.42(2) 4 1 d . . .
C8 C 0.25 0.812(5) 0.3654(10) Uiso 0.42(2) 4 1 d . . .
C9 C 0.25 0.961(6) 0.3474(13) Uiso 0.42(2) 4 1 d . . .
H1n1 H 0.340969 0.836863 0.598541 Uiso 0.3483 8 0.5 d . . .
H2n1 H 0.18595 0.873041 0.592099 Uiso 0.3483 8 0.5 d . . .
H3n1 H 0.223081 0.750784 0.61387 Uiso 0.3483 8 0.5 d . . .
H1c1 H 0.352721 0.679235 0.558402 Uiso 0.3483 8 0.5 d . . .
H2c1 H 0.206579 0.599539 0.572593 Uiso 0.3483 8 0.5 d . . .
H3c1 H 0.1907 0.73759 0.54801 Uiso 0.3483 8 0.5 d . . .
H1n2 H 0.158307 0.691624 0.70552 Uiso 0.2716 8 0.5 d . . .
H2n2 H 0.311517 0.727197 0.69708 Uiso 0.2716 8 0.5 d . . .
H3n2 H 0.280175 0.619102 0.722725 Uiso 0.2716 8 0.5 d . . .
H1c2 H 0.160686 0.887487 0.736812 Uiso 0.2716 8 0.5 d . . .
H2c2 H 0.339314 0.887487 0.736812 Uiso 0.2716 8 0.5 d . . .
H1c3 H 0.160686 0.696143 0.777043 Uiso 0.2716 8 0.5 d . . .
H2c3 H 0.339314 0.696143 0.777043 Uiso 0.2716 8 0.5 d . . .
H1c4 H 0.339314 0.941885 0.79761 Uiso 0.2716 8 0.5 d . . .
H2c4 H 0.160686 0.941885 0.79761 Uiso 0.2716 8 0.5 d . . .
H1c5 H 0.353099 0.799498 0.842717 Uiso 0.2716 8 0.5 d . . .
H2c5 H 0.196283 0.876962 0.850423 Uiso 0.2716 8 0.5 d . . .
H3c5 H 0.200618 0.715234 0.834334 Uiso 0.2716 8 0.5 d . . .
H1n3 H 0.343461 0.720326 0.465697 Uiso 0.5039 8 0.5 d . . .
H2n3 H 0.203154 0.799376 0.462948 Uiso 0.5039 8 0.5 d . . .
H3n3 H 0.203385 0.640886 0.46846 Uiso 0.5039 8 0.5 d . . .
H1c6 H 0.160687 0.633209 0.414672 Uiso 0.5039 8 0.5 d . . .
H2c6 H 0.339313 0.633209 0.414672 Uiso 0.5039 8 0.5 d . . .
H1c7 H 0.160687 0.894356 0.409177 Uiso 0.5039 8 0.5 d . . .
H2c7 H 0.339313 0.894356 0.409177 Uiso 0.5039 8 0.5 d . . .
H1c8 H 0.160685 0.756366 0.359148 Uiso 0.5039 8 0.5 d . . .
H2c8 H 0.339315 0.756366 0.359148 Uiso 0.5039 8 0.5 d . . .
H1c9 H 0.3514 0.98448 0.339884 Uiso 0.5039 8 0.5 d . . .
H2c9 H 0.18301 0.956501 0.328222 Uiso 0.5039 8 0.5 d . . .
H3c9 H 0.215591 1.038952 0.362588 Uiso 0.5039 8 0.5 d . . .

loop_
_atom_site_aniso_label
_atom_site_aniso_type_symbol
_atom_site_aniso_U_11
_atom_site_aniso_U_22
_atom_site_aniso_U_33
_atom_site_aniso_U_12
_atom_site_aniso_U_13
_atom_site_aniso_U_23
Sn1 Sn 0.0384(18) 0.0375(19) 0.0647(16) 0 0 0.0019(15)
Sn2 Sn 0.0380(19) 0.0331(19) 0.0753(19) 0 0 -0.0015(16)
I1 I 0.0467(15) 0.0491(18) 0.138(4) 0.0132(12) 0 0
I2 I 0.062(2) 0.070(3) 0.131(4) -0.0348(18) 0 0
I3 I 0.063(2) 0.060(2) 0.134(4) -0.0301(18) 0 0
I4 I 0.079(2) 0.072(2) 0.130(4) 0.0486(16) 0 0
I5 I 0.1173(11) 0.0839(10) 0.0575(10) 0 0 0.013(2)
I6 I 0.202(6) 0.074(3) 0.069(2) 0 0 -0.001(2)
I7 I 0.193(6) 0.082(3) 0.056(2) 0 0 -0.003(2)

loop_
_jana_atom_site_ADP_C_label
_jana_atom_site_ADP_C_type_symbol
_jana_atom_site_ADP_C_111
_jana_atom_site_ADP_C_112
_jana_atom_site_ADP_C_113
_jana_atom_site_ADP_C_122
_jana_atom_site_ADP_C_123
_jana_atom_site_ADP_C_133
_jana_atom_site_ADP_C_222
_jana_atom_site_ADP_C_223
_jana_atom_site_ADP_C_233
_jana_atom_site_ADP_C_333
? ? ? ? ? ? ? ? ? ? ? ?

loop_
_jana_atom_site_ADP_D_label
_jana_atom_site_ADP_D_type_symbol
_jana_atom_site_ADP_D_1111
_jana_atom_site_ADP_D_1112
_jana_atom_site_ADP_D_1113
_jana_atom_site_ADP_D_1122
_jana_atom_site_ADP_D_1123
_jana_atom_site_ADP_D_1133
_jana_atom_site_ADP_D_1222
_jana_atom_site_ADP_D_1223
_jana_atom_site_ADP_D_1233
_jana_atom_site_ADP_D_1333
_jana_atom_site_ADP_D_2222
_jana_atom_site_ADP_D_2223
_jana_atom_site_ADP_D_2233
_jana_atom_site_ADP_D_2333
_jana_atom_site_ADP_D_3333
? ? ? ? ? ? ? ? ? ? ? ? ? ? ? ? ?

loop_
_jana_atom_site_ADP_E_label
_jana_atom_site_ADP_E_type_symbol
_jana_atom_site_ADP_E_11111
_jana_atom_site_ADP_E_11112
_jana_atom_site_ADP_E_11113
_jana_atom_site_ADP_E_11122
_jana_atom_site_ADP_E_11123
_jana_atom_site_ADP_E_11133
_jana_atom_site_ADP_E_11222
_jana_atom_site_ADP_E_11223
_jana_atom_site_ADP_E_11233
_jana_atom_site_ADP_E_11333
_jana_atom_site_ADP_E_12222
_jana_atom_site_ADP_E_12223
_jana_atom_site_ADP_E_12233
_jana_atom_site_ADP_E_12333
_jana_atom_site_ADP_E_13333
_jana_atom_site_ADP_E_22222
_jana_atom_site_ADP_E_22223
_jana_atom_site_ADP_E_22233
_jana_atom_site_ADP_E_22333
_jana_atom_site_ADP_E_23333
_jana_atom_site_ADP_E_33333
? ? ? ? ? ? ? ? ? ? ? ? ? ? ? ? ? ? ? ? ? ? ?

loop_
_jana_atom_site_ADP_F_label
_jana_atom_site_ADP_F_type_symbol
_jana_atom_site_ADP_F_111111
_jana_atom_site_ADP_F_111112
_jana_atom_site_ADP_F_111113
_jana_atom_site_ADP_F_111122
_jana_atom_site_ADP_F_111123
_jana_atom_site_ADP_F_111133
_jana_atom_site_ADP_F_111222
_jana_atom_site_ADP_F_111223
_jana_atom_site_ADP_F_111233
_jana_atom_site_ADP_F_111333
_jana_atom_site_ADP_F_112222
_jana_atom_site_ADP_F_112223
_jana_atom_site_ADP_F_112233
_jana_atom_site_ADP_F_112333
_jana_atom_site_ADP_F_113333
_jana_atom_site_ADP_F_122222
_jana_atom_site_ADP_F_122223
_jana_atom_site_ADP_F_122233
_jana_atom_site_ADP_F_122333
_jana_atom_site_ADP_F_123333
_jana_atom_site_ADP_F_133333
_jana_atom_site_ADP_F_222222
_jana_atom_site_ADP_F_222223
_jana_atom_site_ADP_F_222233
_jana_atom_site_ADP_F_222333
_jana_atom_site_ADP_F_223333
_jana_atom_site_ADP_F_233333
_jana_atom_site_ADP_F_333333
? ? ? ? ? ? ? ? ? ? ? ? ? ? ? ? ? ? ? ? ? ? ? ? ? ? ? ? ? ?


#=======================================================================

# 10. MOLECULAR GEOMETRY


loop_
_geom_bond_atom_site_label_1
_geom_bond_atom_site_label_2
_geom_bond_site_symmetry_1
_geom_bond_site_symmetry_2
_geom_bond_distance
_geom_bond_publ_flag
Sn1 I1 . . 3.134(2) ?
Sn1 I1 . 3_455 3.134(2) ?
Sn1 I2 . . 3.135(2) ?
Sn1 I2 . 3_465 3.135(2) ?
Sn1 I5 . . 3.181(6) ?
Sn1 I7 . . 3.046(5) ?
Sn2 I3 . . 3.1342(19) ?
Sn2 I3 . 3_465 3.1342(19) ?
Sn2 I4 . . 3.1275(18) ?
Sn2 I4 . 3_455 3.1275(18) ?
Sn2 I5 . . 3.305(6) ?
Sn2 I6 . . 3.005(5) ?
I1 N3 . 1_545 3.65(6) ?
I1 N3 . 2_665 3.65(6) ?
I2 N3 . . 3.58(5) ?
I2 N3 . 2_665 3.58(5) ?
I3 N2 . . 3.65(3) ?
I3 N2 . 2_665 3.65(3) ?
I4 N2 . 1_545 3.84(3) ?
I4 N2 . 2_665 3.84(3) ?
I5 N1 . 1_545 3.68(4) ?
I6 N2 . . 3.63(4) ?
I7 N3 . . 3.91(8) ?
N1 C1 . . 1.50(7) ?
N2 C2 . . 1.50(5) ?
C2 C3 . . 1.50(4) ?
C3 C4 . . 1.50(4) ?
C4 C5 . . 1.50(4) ?
N3 C6 . . 1.50(7) ?
C6 C7 . . 1.50(7) ?
C7 C8 . . 1.50(6) ?
C8 C9 . . 1.50(7) ?

loop_
_geom_angle_atom_site_label_1
_geom_angle_atom_site_label_2
_geom_angle_atom_site_label_3
_geom_angle_site_symmetry_1
_geom_angle_site_symmetry_2
_geom_angle_site_symmetry_3
_geom_angle
_geom_angle_publ_flag
I1 Sn1 I1 . . 3_455 88.88(7) ?
I1 Sn1 I2 . . . 91.077(12) ?
I1 Sn1 I2 . . 3_465 177.11(18) ?
I1 Sn1 I5 . . . 89.78(11) ?
I1 Sn1 I7 . . . 91.46(13) ?
I1 Sn1 I2 3_455 . . 177.11(18) ?
I1 Sn1 I2 3_455 . 3_465 91.077(12) ?
I1 Sn1 I5 3_455 . . 89.78(11) ?
I1 Sn1 I7 3_455 . . 91.46(13) ?
I2 Sn1 I2 . . 3_465 88.82(7) ?
I2 Sn1 I5 . . . 87.33(11) ?
I2 Sn1 I7 . . . 91.43(13) ?
I2 Sn1 I5 3_465 . . 87.33(11) ?
I2 Sn1 I7 3_465 . . 91.43(13) ?
I5 Sn1 I7 . . . 178.26(14) ?
I3 Sn2 I3 . . 3_465 88.86(7) ?
I3 Sn2 I4 . . . 90.942(11) ?
I3 Sn2 I4 . . 3_455 177.03(18) ?
I3 Sn2 I5 . . . 87.77(11) ?
I3 Sn2 I6 . . . 89.44(12) ?
I3 Sn2 I4 3_465 . . 177.03(18) ?
I3 Sn2 I4 3_465 . 3_455 90.942(11) ?
I3 Sn2 I5 3_465 . . 87.77(11) ?
I3 Sn2 I6 3_465 . . 89.44(12) ?
I4 Sn2 I4 . . 3_455 89.10(7) ?
I4 Sn2 I5 . . . 89.26(11) ?
I4 Sn2 I6 . . . 93.52(13) ?
I4 Sn2 I5 3_455 . . 89.26(11) ?
I4 Sn2 I6 3_455 . . 93.52(13) ?
I5 Sn2 I6 . . . 176.09(13) ?
Sn1 I1 Sn1 . . 2_655 171.25(18) ?
Sn1 I1 N3 . . 1_545 95.8(8) ?
Sn1 I1 N3 . . 2_665 87.7(9) ?
Sn1 I1 N3 2_655 . 1_545 87.7(9) ?
Sn1 I1 N3 2_655 . 2_665 95.8(8) ?
N3 I1 N3 1_545 . 2_665 132.9(11) ?
Sn1 I2 Sn1 . . 2_665 165.49(18) ?
Sn1 I2 N3 . . . 82.6(10) ?
Sn1 I2 N3 . . 2_665 88.9(9) ?
Sn1 I2 N3 2_665 . . 88.9(9) ?
Sn1 I2 N3 2_665 . 2_665 82.6(10) ?
N3 I2 N3 . . 2_665 108.5(11) ?
Sn2 I3 Sn2 . . 2_665 166.83(17) ?
Sn2 I3 N2 . . . 81.6(6) ?
Sn2 I3 N2 . . 2_665 90.1(5) ?
Sn2 I3 N2 2_665 . . 90.1(5) ?
Sn2 I3 N2 2_665 . 2_665 81.6(6) ?
N2 I3 N2 . . 2_665 102.2(6) ?
Sn2 I4 Sn2 . . 2_655 172.76(19) ?
Sn2 I4 N2 . . 1_545 96.5(4) ?
Sn2 I4 N2 . . 2_665 86.7(5) ?
Sn2 I4 N2 2_655 . 1_545 86.7(5) ?
Sn2 I4 N2 2_655 . 2_665 96.5(4) ?
N2 I4 N2 1_545 . 2_665 126.3(6) ?
Sn1 I5 Sn2 . . . 167.43(9) ?
Sn1 I5 N1 . . 1_545 105.3(8) ?
Sn2 I5 N1 . . 1_545 87.3(8) ?
Sn2 I6 N2 . . . 83.6(5) ?
Sn1 I7 N3 . . . 78.4(7) ?
I5 N1 C1 1_565 . . 120(3) ?
I3 N2 I3 . . 3_465 74.0(7) ?
I3 N2 I4 . . 1_565 73.2(3) ?
I3 N2 I4 . . 3_465 113.5(7) ?
I3 N2 I6 . . . 72.8(8) ?
I3 N2 C2 . . . 142.2(7) ?
I3 N2 I4 3_465 . 1_565 113.5(7) ?
I3 N2 I4 3_465 . 3_465 73.2(3) ?
I3 N2 I6 3_465 . . 72.8(8) ?
I3 N2 C2 3_465 . . 142.2(7) ?
I4 N2 I4 1_565 . 3_465 69.7(7) ?
I4 N2 I6 1_565 . . 141.7(6) ?
I4 N2 C2 1_565 . . 79.2(17) ?
I4 N2 I6 3_465 . . 141.7(6) ?
I4 N2 C2 3_465 . . 79.2(17) ?
I6 N2 C2 . . . 120.2(19) ?
N2 C2 C3 . . . 109(3) ?
C2 C3 C4 . . . 109(2) ?
C3 C4 C5 . . . 109(2) ?
I1 N3 I1 1_565 . 3_465 74.0(14) ?
I1 N3 I2 1_565 . . 76.5(6) ?
I1 N3 I2 1_565 . 3_465 120.2(13) ?
I1 N3 I7 1_565 . . 141.8(9) ?
I1 N3 C6 1_565 . . 120(3) ?
I1 N3 I2 3_465 . . 120.2(13) ?
I1 N3 I2 3_465 . 3_465 76.5(6) ?
I1 N3 I7 3_465 . . 141.8(9) ?
I1 N3 C6 3_465 . . 120(3) ?
I2 N3 I2 . . 3_465 75.6(13) ?
I2 N3 I7 . . . 72.3(14) ?
I2 N3 C6 . . . 120(3) ?
I2 N3 I7 3_465 . . 72.3(14) ?
I2 N3 C6 3_465 . . 120(3) ?
I7 N3 C6 . . . 61(4) ?
N3 C6 C7 . . . 109(5) ?
C6 C7 C8 . . . 109(4) ?
C7 C8 C9 . . . 109(4) ?

loop_
_geom_torsion_atom_site_label_1
_geom_torsion_atom_site_label_2
_geom_torsion_atom_site_label_3
_geom_torsion_atom_site_label_4
_geom_torsion_site_symmetry_1
_geom_torsion_site_symmetry_2
_geom_torsion_site_symmetry_3
_geom_torsion_site_symmetry_4
_geom_torsion
_geom_torsion_publ_flag
? ? ? ? ? ? ? ? ? ?

loop_
_geom_hbond_atom_site_label_D
_geom_hbond_atom_site_label_H
_geom_hbond_atom_site_label_A
_geom_hbond_site_symmetry_D
_geom_hbond_site_symmetry_H
_geom_hbond_site_symmetry_A
_geom_hbond_distance_DH
_geom_hbond_distance_HA
_geom_hbond_distance_DA
_geom_hbond_angle_DHA
_geom_hbond_publ_flag
? ? ? ? ? ? ? ? ? ? ?


#=======================================================================

# 11. STRUCTURE-FACTOR LIST

loop_
_refln_index_h
_refln_index_k
_refln_index_l
_refln_F_squared_calc
_refln_F_squared_meas
_refln_F_squared_sigma
_refln_observed_status
? ? ? ? ? ? ?

loop_
_twin_refln_datum_id
_twin_refln_individual_id
_twin_refln_index_h
_twin_refln_index_k
_twin_refln_index_l
_twin_refln_F_squared_calc
_twin_refln_F_squared_meas
_twin_refln_F_squared_sigma
_twin_refln_include_status
1 3 -2 0 0 104238. 73411. 1495. o
1 2 0 2 0 104238. 73411. 1495. o
1 1 2 0 0 104238. 73411. 1495. o
2 3 -4 0 0 1078690. 931806. 8998. o
2 2 0 4 0 1078690. 931806. 8998. o
2 1 4 0 0 1078690. 931806. 8998. o
3 3 -6 0 0 2293. 2221. 388. o
3 2 0 6 0 2293. 2221. 388. o
3 1 6 0 0 2293. 2221. 388. o
4 3 -8 0 0 97074. 91028. 823. o
4 2 0 8 0 97074. 91028. 823. o
4 1 8 0 0 97074. 91028. 823. o
5 3 -10 0 0 155. 463. 397. <
5 2 0 10 0 155. 463. 397. <
5 1 10 0 0 155. 463. 397. <
6 3 0 -2 0 33793. 35368. 620. o
6 2 2 0 0 33793. 35368. 620. o
6 1 0 2 0 33793. 35368. 620. o
7 3 -1 -2 0 28587. 32221. 393. o
7 1 1 2 0 28587. 32221. 393. o
8 3 -3 -2 0 7502. 4716. 289. o
8 1 3 2 0 7502. 4716. 289. o
9 3 -4 -2 0 887. 888. 265. o
9 2 2 4 0 887. 888. 265. o
9 1 4 2 0 887. 888. 265. o
10 3 -5 -2 0 412. 406. 265. <
10 1 5 2 0 412. 406. 265. <
11 3 -6 -2 0 276253. 273133. 993. o
11 2 2 6 0 276253. 273133. 993. o
11 1 6 2 0 276253. 273133. 993. o
12 3 -7 -2 0 31. -76. 302. <
12 1 7 2 0 31. -76. 302. <
13 3 -8 -2 0 1545. 2164. 273. o
13 2 2 8 0 1545. 2164. 273. o
13 1 8 2 0 1545. 2164. 273. o
14 3 -9 -2 0 16. 359. 302. <
14 1 9 2 0 16. 359. 302. <
15 3 -10 -2 0 23596. 20604. 421. o
15 2 2 10 0 23596. 20604. 421. o
15 1 10 2 0 23596. 20604. 421. o
16 3 0 -4 0 784651. 715912. 5534. o
16 2 4 0 0 784651. 715912. 5534. o
16 1 0 4 0 784651. 715912. 5534. o
17 3 -1 -4 0 16219. 14877. 311. o
17 1 1 4 0 16219. 14877. 311. o
18 3 -2 -4 0 13783. 11455. 344. o
18 2 4 2 0 13783. 11455. 344. o
18 1 2 4 0 13783. 11455. 344. o
19 3 -3 -4 0 4779. 4527. 285. o
19 1 3 4 0 4779. 4527. 285. o
20 3 -4 -4 0 361917. 376420. 7382. o
20 2 4 4 0 361917. 376420. 7382. o
20 1 4 4 0 361917. 376420. 7382. o
21 3 -5 -4 0 612. 491. 255. <
21 1 5 4 0 612. 491. 255. <
22 3 -6 -4 0 5797. 5416. 295. o
22 2 4 6 0 5797. 5416. 295. o
22 1 6 4 0 5797. 5416. 295. o
23 3 -7 -4 0 20. 265. 265. <
23 1 7 4 0 20. 265. 265. <
24 3 -8 -4 0 58478. 57929. 472. o
24 2 4 8 0 58478. 57929. 472. o
24 1 8 4 0 58478. 57929. 472. o
25 3 -9 -4 0 11. 208. 340. <
25 1 9 4 0 11. 208. 340. <
26 3 0 -6 0 33152. 31682. 490. o
26 2 6 0 0 33152. 31682. 490. o
26 1 0 6 0 33152. 31682. 490. o
27 3 -1 -6 0 2654. 2013. 238. o
27 1 1 6 0 2654. 2013. 238. o
28 3 -2 -6 0 180691. 186112. 3720. o
28 2 6 2 0 180691. 186112. 3720. o
28 1 2 6 0 180691. 186112. 3720. o
29 3 -3 -6 0 946. 822. 236. o
29 1 3 6 0 946. 822. 236. o
30 3 -4 -6 0 13616. 13185. 345. o
30 2 6 4 0 13616. 13185. 345. o
30 1 4 6 0 13616. 13185. 345. o
31 3 -5 -6 0 6. 113. 265. <
31 1 5 6 0 6. 113. 265. <
32 3 -6 -6 0 74670. 76747. 349. o
32 2 6 6 0 74670. 76747. 349. o
32 1 6 6 0 74670. 76747. 349. o
33 3 -7 -6 0 13. 189. 302. <
33 1 7 6 0 13. 189. 302. <
34 3 -8 -6 0 1686. 1815. 331. o
34 2 6 8 0 1686. 1815. 331. o
34 1 8 6 0 1686. 1815. 331. o
35 3 0 -8 0 52418. 51871. 599. o
35 2 8 0 0 52418. 51871. 599. o
35 1 0 8 0 52418. 51871. 599. o
36 3 -1 -8 0 1. 57. 265. <
36 1 1 8 0 1. 57. 265. <
37 3 -2 -8 0 11509. 11465. 312. o
37 2 8 2 0 11509. 11465. 312. o
37 1 2 8 0 11509. 11465. 312. o
38 3 -3 -8 0 12. 19. 284. <
38 1 3 8 0 12. 19. 284. <
39 3 -4 -8 0 44683. 43449. 441. o
39 2 8 4 0 44683. 43449. 441. o
39 1 4 8 0 44683. 43449. 441. o
40 3 -5 -8 0 0. 76. 302. <
40 1 5 8 0 0. 76. 302. <
41 3 -6 -8 0 2503. 2146. 388. o
41 2 8 6 0 2503. 2146. 388. o
41 1 6 8 0 2503. 2146. 388. o
42 3 0 -10 0 1959. 2193. 472. o
42 2 10 0 0 1959. 2193. 472. o
42 1 0 10 0 1959. 2193. 472. o
43 3 -1 -10 0 149. 255. 340. <
43 1 1 10 0 149. 255. 340. <
44 3 -2 -10 0 16797. 16011. 415. o
44 2 10 2 0 16797. 16011. 415. o
44 1 2 10 0 16797. 16011. 415. o
45 3 -3 -10 0 40. 416. 340. <
45 1 3 10 0 40. 416. 340. <
46 3 -1 -1 -1 302172. 242755. 3166. o
46 2 1 1 -1 302172. 242755. 3166. o
46 1 1 1 1 302172. 242755. 3166. o
47 3 -1 -1 1 303382. 238304. 3302. o
47 2 1 1 1 303382. 238304. 3302. o
47 1 1 1 -1 303382. 238304. 3302. o
48 3 -2 -1 -1 4. 132. 284. <
48 1 2 1 1 4. 132. 284. <
49 3 -2 -1 1 4. 217. 265. <
49 1 2 1 -1 4. 217. 265. <
50 3 -3 -1 -1 224806. 229211. 376. o
50 2 1 3 -1 224806. 229211. 376. o
50 1 3 1 1 224806. 229211. 376. o
51 3 -3 -1 1 225607. 228275. 607. o
51 2 1 3 1 225607. 228275. 607. o
51 1 3 1 -1 225607. 228275. 607. o
52 3 -4 -1 -1 290. 766. 293. o
52 1 4 1 1 290. 766. 293. o
53 3 -4 -1 1 293. 312. 284. <
53 1 4 1 -1 293. 312. 284. <
54 3 -5 -1 -1 66616. 70046. 267. o
54 2 1 5 -1 66616. 70046. 267. o
54 1 5 1 1 66616. 70046. 267. o
55 3 -5 -1 1 66774. 70074. 260. o
55 2 1 5 1 66774. 70074. 260. o
55 1 5 1 -1 66774. 70074. 260. o
56 3 -6 -1 -1 224. 293. 265. <
56 1 6 1 1 224. 293. 265. <
57 3 -6 -1 1 223. 416. 255. <
57 1 6 1 -1 223. 416. 255. <
58 3 -7 -1 -1 32739. 33118. 369. o
58 2 1 7 -1 32739. 33118. 369. o
58 1 7 1 1 32739. 33118. 369. o
59 3 -7 -1 1 32774. 33326. 355. o
59 2 1 7 1 32774. 33326. 355. o
59 1 7 1 -1 32774. 33326. 355. o
60 3 -8 -1 -1 124. 76. 293. <
60 1 8 1 1 124. 76. 293. <
61 3 -8 -1 1 124. 227. 246. <
61 1 8 1 -1 124. 227. 246. <
62 3 -9 -1 -1 5417. 4886. 333. o
62 2 1 9 -1 5417. 4886. 333. o
62 1 9 1 1 5417. 4886. 333. o
63 3 -9 -1 1 5418. 5038. 314. o
63 2 1 9 1 5418. 5038. 314. o
63 1 9 1 -1 5418. 5038. 314. o
64 3 -10 -1 -1 75. -85. 331. <
64 1 10 1 1 75. -85. 331. <
65 3 -10 -1 1 75. 302. 331. <
65 1 10 1 -1 75. 302. 331. <
66 3 0 -3 -1 1576. 832. 275. o
66 1 0 3 1 1576. 832. 275. o
67 3 0 -3 1 1643. 841. 303. o
67 1 0 3 -1 1643. 841. 303. o
68 3 -1 -3 -1 198599. 175441. 1667. o
68 2 3 1 -1 198599. 175441. 1667. o
68 1 1 3 1 198599. 175441. 1667. o
69 3 -1 -3 1 198751. 176972. 1692. o
69 2 3 1 1 198751. 176972. 1692. o
69 1 1 3 -1 198751. 176972. 1692. o
70 3 -2 -3 -1 1580. 1853. 255. o
70 1 2 3 1 1580. 1853. 255. o
71 3 -2 -3 1 1634. 1786. 264. o
71 1 2 3 -1 1634. 1786. 264. o
72 3 -3 -3 -1 74221. 73042. 493. o
72 2 3 3 -1 74221. 73042. 493. o
72 1 3 3 1 74221. 73042. 493. o
73 3 -3 -3 1 74262. 72919. 517. o
73 2 3 3 1 74262. 72919. 517. o
73 1 3 3 -1 74262. 72919. 517. o
74 3 -4 -3 -1 122. 312. 246. <
74 1 4 3 1 122. 312. 246. <
75 3 -4 -3 1 120. 217. 236. <
75 1 4 3 -1 120. 217. 236. <
76 3 -5 -3 -1 81502. 83959. 297. o
76 2 3 5 -1 81502. 83959. 297. o
76 1 5 3 1 81502. 83959. 297. o
77 3 -5 -3 1 81558. 84478. 259. o
77 2 3 5 1 81558. 84478. 259. o
77 1 5 3 -1 81558. 84478. 259. o
78 3 -6 -3 -1 84. 76. 246. <
78 1 6 3 1 84. 76. 246. <
79 3 -6 -3 1 84. 85. 255. <
79 1 6 3 -1 84. 85. 255. <
80 3 -7 -3 -1 5878. 6087. 320. o
80 2 3 7 -1 5878. 6087. 320. o
80 1 7 3 1 5878. 6087. 320. o
81 3 -7 -3 1 5868. 6172. 320. o
81 2 3 7 1 5868. 6172. 320. o
81 1 7 3 -1 5868. 6172. 320. o
82 3 -8 -3 -1 113. 302. 312. <
82 1 8 3 1 113. 302. 312. <
83 3 -8 -3 1 113. 236. 302. <
83 1 8 3 -1 113. 236. 302. <
84 3 -9 -3 -1 12686. 12382. 353. o
84 2 3 9 -1 12686. 12382. 353. o
84 1 9 3 1 12686. 12382. 353. o
85 3 -9 -3 1 12689. 12297. 335. o
85 2 3 9 1 12689. 12297. 335. o
85 1 9 3 -1 12689. 12297. 335. o
86 3 -10 -3 -1 43. 132. 340. <
86 1 10 3 1 43. 132. 340. <
87 3 -10 -3 1 43. 539. 340. <
87 1 10 3 -1 43. 539. 340. <
88 3 0 -5 -1 844. 548. 312. <
88 1 0 5 1 844. 548. 312. <
89 3 0 -5 1 845. 803. 340. o
89 1 0 5 -1 845. 803. 340. o
90 3 -1 -5 -1 34149. 32343. 384. o
90 2 5 1 -1 34149. 32343. 384. o
90 1 1 5 1 34149. 32343. 384. o
91 3 -1 -5 1 34030. 32277. 400. o
91 2 5 1 1 34030. 32277. 400. o
91 1 1 5 -1 34030. 32277. 400. o
92 3 -2 -5 -1 202. 208. 227. <
92 1 2 5 1 202. 208. 227. <
93 3 -2 -5 1 200. 113. 274. <
93 1 2 5 -1 200. 113. 274. <
94 3 -3 -5 -1 61554. 61757. 446. o
94 2 5 3 -1 61554. 61757. 446. o
94 1 3 5 1 61554. 61757. 446. o
95 3 -3 -5 1 61517. 62579. 434. o
95 2 5 3 1 61517. 62579. 434. o
95 1 3 5 -1 61517. 62579. 434. o
96 3 -4 -5 -1 50. 66. 274. <
96 1 4 5 1 50. 66. 274. <
97 3 -4 -5 1 51. 76. 217. <
97 1 4 5 -1 51. 76. 217. <
98 3 -5 -5 -1 3382. 3280. 256. o
98 2 5 5 -1 3382. 3280. 256. o
98 1 5 5 1 3382. 3280. 256. o
99 3 -5 -5 1 3348. 3611. 264. o
99 2 5 5 1 3348. 3611. 264. o
99 1 5 5 -1 3348. 3611. 264. o
100 3 -6 -5 -1 116. 255. 274. <
100 1 6 5 1 116. 255. 274. <
101 3 -6 -5 1 115. 293. 284. <
101 1 6 5 -1 115. 293. 284. <
102 3 -7 -5 -1 26171. 26313. 366. o
102 2 5 7 -1 26171. 26313. 366. o
102 1 7 5 1 26171. 26313. 366. o
103 3 -7 -5 1 26179. 25576. 361. o
103 2 5 7 1 26179. 25576. 361. o
103 1 7 5 -1 26179. 25576. 361. o
104 3 -8 -5 -1 33. 76. 340. <
104 1 8 5 1 33. 76. 340. <
105 3 -8 -5 1 33. 198. 340. <
105 1 8 5 -1 33. 198. 340. <
106 3 -9 -5 -1 137. 340. 359. <
106 2 5 9 -1 137. 340. 359. <
106 1 9 5 1 137. 340. 359. <
107 3 -9 -5 1 133. 491. 359. <
107 2 5 9 1 133. 491. 359. <
107 1 9 5 -1 133. 491. 359. <
108 3 0 -7 -1 520. 38. 312. <
108 1 0 7 1 520. 38. 312. <
109 3 0 -7 1 517. 170. 312. <
109 1 0 7 -1 517. 170. 312. <
110 3 -1 -7 -1 12999. 13242. 281. o
110 2 7 1 -1 12999. 13242. 281. o
110 1 1 7 1 12999. 13242. 281. o
111 3 -1 -7 1 12971. 13440. 278. o
111 2 7 1 1 12971. 13440. 278. o
111 1 1 7 -1 12971. 13440. 278. o
112 3 -2 -7 -1 56. 255. 236. <
112 1 2 7 1 56. 255. 236. <
113 3 -2 -7 1 57. 47. 227. <
113 1 2 7 -1 57. 47. 227. <
114 3 -3 -7 -1 1347. 1267. 246. o
114 2 7 3 -1 1347. 1267. 246. o
114 1 3 7 1 1347. 1267. 246. o
115 3 -3 -7 1 1315. 1172. 255. o
115 2 7 3 1 1315. 1172. 255. o
115 1 3 7 -1 1315. 1172. 255. o
116 3 -4 -7 -1 182. 198. 246. <
116 1 4 7 1 182. 198. 246. <
117 3 -4 -7 1 180. 378. 302. <
117 1 4 7 -1 180. 378. 302. <
118 3 -5 -7 -1 22272. 22230. 407. o
118 2 7 5 -1 22272. 22230. 407. o
118 1 5 7 1 22272. 22230. 407. o
119 3 -5 -7 1 22279. 21928. 430. o
119 2 7 5 1 22279. 21928. 430. o
119 1 5 7 -1 22279. 21928. 430. o
120 3 -6 -7 -1 44. 142. 340. <
120 1 6 7 1 44. 142. 340. <
121 3 -6 -7 1 44. -95. 293. <
121 1 6 7 -1 44. -95. 293. <
122 3 -7 -7 -1 41. 217. 312. <
122 2 7 7 -1 41. 217. 312. <
122 1 7 7 1 41. 217. 312. <
123 3 -7 -7 1 33. 397. 340. <
123 2 7 7 1 33. 397. 340. <
123 1 7 7 -1 33. 397. 340. <
124 3 0 -9 -1 197. 274. 388. <
124 1 0 9 1 197. 274. 388. <
125 3 0 -9 1 196. 217. 425. <
125 1 0 9 -1 196. 217. 425. <
126 3 -1 -9 -1 1476. 1635. 293. o
126 2 9 1 -1 1476. 1635. 293. o
126 1 1 9 1 1476. 1635. 293. o
127 3 -1 -9 1 1470. 1730. 302. o
127 2 9 1 1 1470. 1730. 302. o
127 1 1 9 -1 1470. 1730. 302. o
128 3 -2 -9 -1 344. 217. 284. <
128 1 2 9 1 344. 217. 284. <
129 3 -2 -9 1 342. 151. 293. <
129 1 2 9 -1 342. 151. 293. <
130 3 -3 -9 -1 8357. 8270. 379. o
130 2 9 3 -1 8357. 8270. 379. o
130 1 3 9 1 8357. 8270. 379. o
131 3 -3 -9 1 8362. 8327. 331. o
131 2 9 3 1 8362. 8327. 331. o
131 1 3 9 -1 8362. 8327. 331. o
132 3 -4 -9 -1 70. -19. 312. <
132 1 4 9 1 70. -19. 312. <
133 3 -4 -9 1 71. 104. 321. <
133 1 4 9 -1 71. 104. 321. <
134 3 -5 -9 -1 28. 142. 321. <
134 2 9 5 -1 28. 142. 321. <
134 1 5 9 1 28. 142. 321. <
135 3 -5 -9 1 22. 47. 331. <
135 2 9 5 1 22. 47. 331. <
135 1 5 9 -1 22. 47. 331. <
136 3 -2 0 -2 46451. 35548. 839. o
136 2 0 2 -2 46451. 35548. 839. o
136 1 2 0 2 46451. 35548. 839. o
137 3 -2 0 2 46545. 35491. 841. o
137 2 0 2 2 46545. 35491. 841. o
137 1 2 0 -2 46545. 35491. 841. o
138 3 -4 0 -2 186758. 192066. 682. o
138 2 0 4 -2 186758. 192066. 682. o
138 1 4 0 2 186758. 192066. 682. o
139 3 -4 0 2 186424. 194628. 381. o
139 2 0 4 2 186424. 194628. 381. o
139 1 4 0 -2 186424. 194628. 381. o
140 3 -6 0 -2 2416. 1786. 351. o
140 2 0 6 -2 2416. 1786. 351. o
140 1 6 0 2 2416. 1786. 351. o
141 3 -6 0 2 2464. 1824. 417. o
141 2 0 6 2 2464. 1824. 417. o
141 1 6 0 -2 2464. 1824. 417. o
142 3 -8 0 -2 27393. 28241. 508. o
142 2 0 8 -2 27393. 28241. 508. o
142 1 8 0 2 27393. 28241. 508. o
143 3 -8 0 2 27358. 28487. 494. o
143 2 0 8 2 27358. 28487. 494. o
143 1 8 0 -2 27358. 28487. 494. o
144 3 -10 0 -2 261. -217. 397. <
144 2 0 10 -2 261. -217. 397. <
144 1 10 0 2 261. -217. 397. <
145 3 -10 0 2 274. 142. 397. <
145 2 0 10 2 274. 142. 397. <
145 1 10 0 -2 274. 142. 397. <
146 3 0 -2 -2 25595. 25718. 499. o
146 2 2 0 -2 25595. 25718. 499. o
146 1 0 2 2 25595. 25718. 499. o
147 3 0 -2 2 25648. 25482. 663. o
147 2 2 0 2 25648. 25482. 663. o
147 1 0 2 -2 25648. 25482. 663. o
148 3 -1 -2 -2 41604. 41474. 457. o
148 1 1 2 2 41604. 41474. 457. o
149 3 -1 -2 2 41688. 41256. 557. o
149 1 1 2 -2 41688. 41256. 557. o
150 3 -2 -2 -2 291334. 278756. 1715. o
150 2 2 2 -2 291334. 278756. 1715. o
150 1 2 2 2 291334. 278756. 1715. o
151 3 -2 -2 2 290959. 279135. 1615. o
151 2 2 2 2 290959. 279135. 1615. o
151 1 2 2 -2 290959. 279135. 1615. o
152 3 -3 -2 -2 12268. 10605. 292. o
152 1 3 2 2 12268. 10605. 292. o
153 3 -3 -2 2 12313. 10160. 314. o
153 1 3 2 -2 12313. 10160. 314. o
154 3 -4 -2 -2 6554. 7079. 280. o
154 2 2 4 -2 6554. 7079. 280. o
154 1 4 2 2 6554. 7079. 280. o
155 3 -4 -2 2 6624. 6796. 282. o
155 2 2 4 2 6624. 6796. 282. o
155 1 4 2 -2 6624. 6796. 282. o
156 3 -5 -2 -2 3325. 2741. 276. o
156 1 5 2 2 3325. 2741. 276. o
157 3 -5 -2 2 3323. 3147. 275. o
157 1 5 2 -2 3323. 3147. 275. o
158 3 -6 -2 -2 70817. 71312. 423. o
158 2 2 6 -2 70817. 71312. 423. o
158 1 6 2 2 70817. 71312. 423. o
159 3 -6 -2 2 70737. 72560. 345. o
159 2 2 6 2 70737. 72560. 345. o
159 1 6 2 -2 70737. 72560. 345. o
160 3 -7 -2 -2 196. 369. 293. <
160 1 7 2 2 196. 369. 293. <
161 3 -7 -2 2 197. 359. 302. <
161 1 7 2 -2 197. 359. 302. <
162 3 -8 -2 -2 676. 265. 303. <
162 2 2 8 -2 676. 265. 303. <
162 1 8 2 2 676. 265. 303. <
163 3 -8 -2 2 698. 312. 284. <
163 2 2 8 2 698. 312. 284. <
163 1 8 2 -2 698. 312. 284. <
164 3 -9 -2 -2 89. 198. 293. <
164 1 9 2 2 89. 198. 293. <
165 3 -9 -2 2 89. 586. 312. <
165 1 9 2 -2 89. 586. 312. <
166 3 -10 -2 -2 6919. 6928. 359. o
166 2 2 10 -2 6919. 6928. 359. o
166 1 10 2 2 6919. 6928. 359. o
167 3 -10 -2 2 6907. 6257. 353. o
167 2 2 10 2 6907. 6257. 353. o
167 1 10 2 -2 6907. 6257. 353. o
168 3 0 -4 -2 204501. 209703. 639. o
168 2 4 0 -2 204501. 209703. 639. o
168 1 0 4 2 204501. 209703. 639. o
169 3 0 -4 2 204394. 206367. 1024. o
169 2 4 0 2 204394. 206367. 1024. o
169 1 0 4 -2 204394. 206367. 1024. o
170 3 -1 -4 -2 28929. 27296. 383. o
170 1 1 4 2 28929. 27296. 383. o
171 3 -1 -4 2 28932. 26531. 439. o
171 1 1 4 -2 28932. 26531. 439. o
172 3 -2 -4 -2 5623. 5765. 264. o
172 2 4 2 -2 5623. 5765. 264. o
172 1 2 4 2 5623. 5765. 264. o
173 3 -2 -4 2 5604. 5841. 311. o
173 2 4 2 2 5604. 5841. 311. o
173 1 2 4 -2 5604. 5841. 311. o
174 3 -3 -4 -2 15978. 16106. 329. o
174 1 3 4 2 15978. 16106. 329. o
175 3 -3 -4 2 15980. 15860. 295. o
175 1 3 4 -2 15980. 15860. 295. o
176 3 -4 -4 -2 101004. 103694. 275. o
176 2 4 4 -2 101004. 103694. 275. o
176 1 4 4 2 101004. 103694. 275. o
177 3 -4 -4 2 100941. 103174. 318. o
177 2 4 4 2 100941. 103174. 318. o
177 1 4 4 -2 100941. 103174. 318. o
178 3 -5 -4 -2 2513. 2372. 246. o
178 1 5 4 2 2513. 2372. 246. o
179 3 -5 -4 2 2515. 2552. 274. o
179 1 5 4 -2 2515. 2552. 274. o
180 3 -6 -4 -2 1609. 1626. 255. o
180 2 4 6 -2 1609. 1626. 255. o
180 1 6 4 2 1609. 1626. 255. o
181 3 -6 -4 2 1626. 1541. 274. o
181 2 4 6 2 1626. 1541. 274. o
181 1 6 4 -2 1626. 1541. 274. o
182 3 -7 -4 -2 973. 662. 284. o
182 1 7 4 2 973. 662. 284. o
183 3 -7 -4 2 973. 435. 274. <
183 1 7 4 -2 973. 435. 274. <
184 3 -8 -4 -2 16939. 16484. 365. o
184 2 4 8 -2 16939. 16484. 365. o
184 1 8 4 2 16939. 16484. 365. o
185 3 -8 -4 2 16924. 17004. 339. o
185 2 4 8 2 16924. 17004. 339. o
185 1 8 4 -2 16924. 17004. 339. o
186 3 -9 -4 -2 63. 132. 302. <
186 1 9 4 2 63. 132. 302. <
187 3 -9 -4 2 63. 161. 331. <
187 1 9 4 -2 63. 161. 331. <
188 3 0 -6 -2 1594. 1493. 312. o
188 2 6 0 -2 1594. 1493. 312. o
188 1 0 6 2 1594. 1493. 312. o
189 3 0 -6 2 1576. 1890. 368. o
189 2 6 0 2 1576. 1890. 368. o
189 1 0 6 -2 1576. 1890. 368. o
190 3 -1 -6 -2 10403. 9480. 264. o
190 1 1 6 2 10403. 9480. 264. o
191 3 -1 -6 2 10388. 9357. 293. o
191 1 1 6 -2 10388. 9357. 293. o
192 3 -2 -6 -2 73761. 73874. 420. o
192 2 6 2 -2 73761. 73874. 420. o
192 1 2 6 2 73761. 73874. 420. o
193 3 -2 -6 2 73716. 74432. 630. o
193 2 6 2 2 73716. 74432. 630. o
193 1 2 6 -2 73716. 74432. 630. o
194 3 -3 -6 -2 4291. 4234. 246. o
194 1 3 6 2 4291. 4234. 246. o
195 3 -3 -6 2 4284. 4423. 302. o
195 1 3 6 -2 4284. 4423. 302. o
196 3 -4 -6 -2 1533. 1645. 246. o
196 2 6 4 -2 1533. 1645. 246. o
196 1 4 6 2 1533. 1645. 246. o
197 3 -4 -6 2 1536. 1682. 302. o
197 2 6 4 2 1536. 1682. 302. o
197 1 4 6 -2 1536. 1682. 302. o
198 3 -5 -6 -2 2072. 1947. 303. o
198 1 5 6 2 2072. 1947. 303. o
199 3 -5 -6 2 2071. 1777. 275. o
199 1 5 6 -2 2071. 1777. 275. o
200 3 -6 -6 -2 23220. 23308. 339. o
200 2 6 6 -2 23220. 23308. 339. o
200 1 6 6 2 23220. 23308. 339. o
201 3 -6 -6 2 23207. 23242. 349. o
201 2 6 6 2 23207. 23242. 349. o
201 1 6 6 -2 23207. 23242. 349. o
202 3 -7 -6 -2 245. 142. 302. <
202 1 7 6 2 245. 142. 302. <
203 3 -7 -6 2 245. 369. 293. <
203 1 7 6 -2 245. 369. 293. <
204 3 -8 -6 -2 465. 671. 340. <
204 2 6 8 -2 465. 671. 340. <
204 1 8 6 2 465. 671. 340. <
205 3 -8 -6 2 471. 558. 350. <
205 2 6 8 2 471. 558. 350. <
205 1 8 6 -2 471. 558. 350. <
206 3 0 -8 -2 28414. 27882. 472. o
206 2 8 0 -2 28414. 27882. 472. o
206 1 0 8 2 28414. 27882. 472. o
207 3 0 -8 2 28387. 28553. 517. o
207 2 8 0 2 28387. 28553. 517. o
207 1 0 8 -2 28387. 28553. 517. o
208 3 -1 -8 -2 1176. 1059. 265. o
208 1 1 8 2 1176. 1059. 265. o
209 3 -1 -8 2 1174. 1030. 284. o
209 1 1 8 -2 1174. 1030. 284. o
210 3 -2 -8 -2 401. 359. 255. <
210 2 8 2 -2 401. 359. 255. <
210 1 2 8 2 401. 359. 255. <
211 3 -2 -8 2 407. 331. 274. <
211 2 8 2 2 407. 331. 274. <
211 1 2 8 -2 407. 331. 274. <
212 3 -3 -8 -2 798. 841. 284. o
212 1 3 8 2 798. 841. 284. o
213 3 -3 -8 2 797. 888. 283. o
213 1 3 8 -2 797. 888. 283. o
214 3 -4 -8 -2 16913. 16710. 352. o
214 2 8 4 -2 16913. 16710. 352. o
214 1 4 8 2 16913. 16710. 352. o
215 3 -4 -8 2 16901. 16862. 369. o
215 2 8 4 2 16901. 16862. 369. o
215 1 4 8 -2 16901. 16862. 369. o
216 3 -5 -8 -2 271. 76. 293. <
216 1 5 8 2 271. 76. 293. <
217 3 -5 -8 2 270. -66. 369. <
217 1 5 8 -2 270. -66. 369. <
218 3 -6 -8 -2 474. 520. 331. <
218 2 8 6 -2 474. 520. 331. <
218 1 6 8 2 474. 520. 331. <
219 3 -6 -8 2 478. 491. 331. <
219 2 8 6 2 478. 491. 331. <
219 1 6 8 -2 478. 491. 331. <
220 3 0 -10 -2 160. -85. 454. <
220 2 10 0 -2 160. -85. 454. <
220 1 0 10 2 160. -85. 454. <
221 3 0 -10 2 170. 397. 520. <
221 2 10 0 2 170. 397. 520. <
221 1 0 10 -2 170. 397. 520. <
222 3 -1 -10 -2 59. 95. 293. <
222 1 1 10 2 59. 95. 293. <
223 3 -1 -10 2 59. 95. 369. <
223 1 1 10 -2 59. 95. 369. <
224 3 -2 -10 -2 6774. 6654. 331. o
224 2 10 2 -2 6774. 6654. 331. o
224 1 2 10 2 6774. 6654. 331. o
225 3 -2 -10 2 6766. 6569. 417. o
225 2 10 2 2 6766. 6569. 417. o
225 1 2 10 -2 6766. 6569. 417. o
226 3 -3 -10 -2 103. 246. 321. <
226 1 3 10 2 103. 246. 321. <
227 3 -3 -10 2 103. 350. 397. <
227 1 3 10 -2 103. 350. 397. <
228 3 0 -1 -3 1852. 1361. 530. o
228 1 0 1 3 1852. 1361. 530. o
229 3 -1 -1 -3 4235. 3062. 334. o
229 2 1 1 -3 4235. 3062. 334. o
229 1 1 1 3 4235. 3062. 334. o
230 3 -1 -1 3 4443. 3062. 363. o
230 2 1 1 3 4443. 3062. 363. o
230 1 1 1 -3 4443. 3062. 363. o
231 3 -2 -1 -3 46463. 48392. 460. o
231 1 2 1 3 46463. 48392. 460. o
232 3 -2 -1 3 46360. 49385. 427. o
232 1 2 1 -3 46360. 49385. 427. o
233 3 -3 -1 -3 1333. 1767. 292. o
233 2 1 3 -3 1333. 1767. 292. o
233 1 3 1 3 1333. 1767. 292. o
234 3 -3 -1 3 1389. 1720. 293. o
234 2 1 3 3 1389. 1720. 293. o
234 1 3 1 -3 1389. 1720. 293. o
235 3 -4 -1 -3 350. 265. 255. <
235 1 4 1 3 350. 265. 255. <
236 3 -4 -1 3 356. 331. 274. <
236 1 4 1 -3 356. 331. 274. <
237 3 -5 -1 -3 168. -19. 265. <
237 2 1 5 -3 168. -19. 265. <
237 1 5 1 3 168. -19. 265. <
238 3 -5 -1 3 164. 76. 246. <
238 2 1 5 3 164. 76. 246. <
238 1 5 1 -3 164. 76. 246. <
239 3 -6 -1 -3 4671. 4036. 286. o
239 1 6 1 3 4671. 4036. 286. o
240 3 -6 -1 3 4675. 4121. 286. o
240 1 6 1 -3 4675. 4121. 286. o
241 3 -7 -1 -3 428. 870. 293. o
241 2 1 7 -3 428. 870. 293. o
241 1 7 1 3 428. 870. 293. o
242 3 -7 -1 3 428. 794. 274. o
242 2 1 7 3 428. 794. 274. o
242 1 7 1 -3 428. 794. 274. o
243 3 -8 -1 -3 699. 359. 274. <
243 1 8 1 3 699. 359. 274. <
244 3 -8 -1 3 699. 567. 284. <
244 1 8 1 -3 699. 567. 284. <
245 3 -9 -1 -3 91. 510. 331. <
245 2 1 9 -3 91. 510. 331. <
245 1 9 1 3 91. 510. 331. <
246 3 -9 -1 3 91. 217. 293. <
246 2 1 9 3 91. 217. 293. <
246 1 9 1 -3 91. 217. 293. <
247 3 -10 -1 -3 417. 113. 312. <
247 1 10 1 3 417. 113. 312. <
248 3 -10 -1 3 417. 548. 321. <
248 1 10 1 -3 417. 548. 321. <
249 3 0 -3 -3 174238. 167133. 1218. o
249 1 0 3 3 174238. 167133. 1218. o
250 3 0 -3 3 174577. 168343. 1433. o
250 1 0 3 -3 174577. 168343. 1433. o
251 3 -1 -3 -3 422. 198. 208. <
251 2 3 1 -3 422. 198. 208. <
251 1 1 3 3 422. 198. 208. <
252 3 -1 -3 3 426. 227. 246. <
252 2 3 1 3 426. 227. 246. <
252 1 1 3 -3 426. 227. 246. <
253 3 -2 -3 -3 36759. 38383. 310. o
253 1 2 3 3 36759. 38383. 310. o
254 3 -2 -3 3 36890. 37788. 354. o
254 1 2 3 -3 36890. 37788. 354. o
255 3 -3 -3 -3 285. 208. 293. <
255 2 3 3 -3 285. 208. 293. <
255 1 3 3 3 285. 208. 293. <
256 3 -3 -3 3 279. 85. 265. <
256 2 3 3 3 279. 85. 265. <
256 1 3 3 -3 279. 85. 265. <
257 3 -4 -3 -3 37378. 39064. 285. o
257 1 4 3 3 37378. 39064. 285. o
258 3 -4 -3 3 37445. 38468. 329. o
258 1 4 3 -3 37445. 38468. 329. o
259 3 -5 -3 -3 682. 633. 227. o
259 2 3 5 -3 682. 633. 227. o
259 1 5 3 3 682. 633. 227. o
260 3 -5 -3 3 685. 690. 265. o
260 2 3 5 3 685. 690. 265. o
260 1 5 3 -3 685. 690. 265. o
261 3 -6 -3 -3 594. 236. 265. <
261 1 6 3 3 594. 236. 265. <
262 3 -6 -3 3 597. 265. 284. <
262 1 6 3 -3 597. 265. 284. <
263 3 -7 -3 -3 197. 331. 312. <
263 2 3 7 -3 197. 331. 312. <
263 1 7 3 3 197. 331. 312. <
264 3 -7 -3 3 196. 491. 312. <
264 2 3 7 3 196. 491. 312. <
264 1 7 3 -3 196. 491. 312. <
265 3 -8 -3 -3 1513. 926. 303. o
265 1 8 3 3 1513. 926. 303. o
266 3 -8 -3 3 1513. 983. 303. o
266 1 8 3 -3 1513. 983. 303. o
267 3 -9 -3 -3 148. 397. 321. <
267 2 3 9 -3 148. 397. 321. <
267 1 9 3 3 148. 397. 321. <
268 3 -9 -3 3 148. 406. 302. <
268 2 3 9 3 148. 406. 302. <
268 1 9 3 -3 148. 406. 302. <
269 3 -10 -3 -3 196. 189. 321. <
269 1 10 3 3 196. 189. 321. <
270 3 -10 -3 3 196. 284. 340. <
270 1 10 3 -3 196. 284. 340. <
271 3 0 -5 -3 39800. 45614. 326. o
271 1 0 5 3 39800. 45614. 326. o
272 3 0 -5 3 39779. 44555. 495. o
272 1 0 5 -3 39779. 44555. 495. o
273 3 -1 -5 -3 3315. 3639. 235. o
273 2 5 1 -3 3315. 3639. 235. o
273 1 1 5 3 3315. 3639. 235. o
274 3 -1 -5 3 3316. 3781. 310. o
274 2 5 1 3 3316. 3781. 310. o
274 1 1 5 -3 3316. 3781. 310. o
275 3 -2 -5 -3 65052. 69819. 1396. o
275 1 2 5 3 65052. 69819. 1396. o
276 3 -2 -5 3 65050. 70698. 251. o
276 1 2 5 -3 65050. 70698. 251. o
277 3 -3 -5 -3 2536. 2609. 246. o
277 2 5 3 -3 2536. 2609. 246. o
277 1 3 5 3 2536. 2609. 246. o
278 3 -3 -5 3 2538. 2646. 264. o
278 2 5 3 3 2538. 2646. 264. o
278 1 3 5 -3 2538. 2646. 264. o
279 3 -4 -5 -3 5460. 5548. 302. o
279 1 4 5 3 5460. 5548. 302. o
280 3 -4 -5 3 5460. 5529. 274. o
280 1 4 5 -3 5460. 5529. 274. o
281 3 -5 -5 -3 523. 312. 227. <
281 2 5 5 -3 523. 312. 227. <
281 1 5 5 3 523. 312. 227. <
282 3 -5 -5 3 522. 463. 265. <
282 2 5 5 3 522. 463. 265. <
282 1 5 5 -3 522. 463. 265. <
283 3 -6 -5 -3 5241. 4773. 286. o
283 1 6 5 3 5241. 4773. 286. o
284 3 -6 -5 3 5241. 4886. 295. o
284 1 6 5 -3 5241. 4886. 295. o
285 3 -7 -5 -3 470. 482. 274. <
285 2 5 7 -3 470. 482. 274. <
285 1 7 5 3 470. 482. 274. <
286 3 -7 -5 3 471. 198. 284. <
286 2 5 7 3 471. 198. 284. <
286 1 7 5 -3 471. 198. 284. <
287 3 -8 -5 -3 93. 302. 350. <
287 1 8 5 3 93. 302. 350. <
288 3 -8 -5 3 93. 170. 340. <
288 1 8 5 -3 93. 170. 340. <
289 3 -9 -5 -3 26. 359. 350. <
289 2 5 9 -3 26. 359. 350. <
289 1 9 5 3 26. 359. 350. <
290 3 -9 -5 3 26. 302. 350. <
290 2 5 9 3 26. 302. 350. <
290 1 9 5 -3 26. 302. 350. <
291 3 0 -7 -3 18867. 20642. 392. o
291 1 0 7 3 18867. 20642. 392. o
292 3 0 -7 3 18869. 20179. 438. o
292 1 0 7 -3 18869. 20179. 438. o
293 3 -1 -7 -3 4310. 4206. 246. o
293 2 7 1 -3 4310. 4206. 246. o
293 1 1 7 3 4310. 4206. 246. o
294 3 -1 -7 3 4302. 4093. 266. o
294 2 7 1 3 4302. 4093. 266. o
294 1 1 7 -3 4302. 4093. 266. o
295 3 -2 -7 -3 3412. 3733. 273. o
295 1 2 7 3 3412. 3733. 273. o
296 3 -2 -7 3 3411. 3875. 253. o
296 1 2 7 -3 3411. 3875. 253. o
297 3 -3 -7 -3 1423. 1267. 246. o
297 2 7 3 -3 1423. 1267. 246. o
297 1 3 7 3 1423. 1267. 246. o
298 3 -3 -7 3 1418. 1352. 303. o
298 2 7 3 3 1418. 1352. 303. o
298 1 3 7 -3 1418. 1352. 303. o
299 3 -4 -7 -3 5748. 6229. 281. o
299 1 4 7 3 5748. 6229. 281. o
300 3 -4 -7 3 5748. 6002. 368. o
300 1 4 7 -3 5748. 6002. 368. o
301 3 -5 -7 -3 882. 633. 284. o
301 2 7 5 -3 882. 633. 284. o
301 1 5 7 3 882. 633. 284. o
302 3 -5 -7 3 882. 709. 303. o
302 2 7 5 3 882. 709. 303. o
302 1 5 7 -3 882. 709. 303. o
303 3 -6 -7 -3 45. 255. 331. <
303 1 6 7 3 45. 255. 331. <
304 3 -6 -7 3 45. 28. 321. <
304 1 6 7 -3 45. 28. 321. <
305 3 -7 -7 -3 95. 180. 340. <
305 2 7 7 -3 95. 180. 340. <
305 1 7 7 3 95. 180. 340. <
306 3 -7 -7 3 95. 491. 340. <
306 2 7 7 3 95. 491. 340. <
306 1 7 7 -3 95. 491. 340. <
307 3 0 -9 -3 279. -19. 388. <
307 1 0 9 3 279. -19. 388. <
308 3 0 -9 3 279. 189. 435. <
308 1 0 9 -3 279. 189. 435. <
309 3 -1 -9 -3 889. 822. 284. o
309 2 9 1 -3 889. 822. 284. o
309 1 1 9 3 889. 822. 284. o
310 3 -1 -9 3 886. 718. 331. o
310 2 9 1 3 886. 718. 331. o
310 1 1 9 -3 886. 718. 331. o
311 3 -2 -9 -3 1282. 1276. 293. o
311 1 2 9 3 1282. 1276. 293. o
312 3 -2 -9 3 1281. 1304. 321. o
312 1 2 9 -3 1281. 1304. 321. o
313 3 -3 -9 -3 668. 482. 340. <
313 2 9 3 -3 668. 482. 340. <
313 1 3 9 3 668. 482. 340. <
314 3 -3 -9 3 666. 454. 321. <
314 2 9 3 3 666. 454. 321. <
314 1 3 9 -3 666. 454. 321. <
315 3 -4 -9 -3 114. -19. 293. <
315 1 4 9 3 114. -19. 293. <
316 3 -4 -9 3 115. 293. 331. <
316 1 4 9 -3 115. 293. 331. <
317 3 -5 -9 -3 66. -28. 331. <
317 2 9 5 -3 66. -28. 331. <
317 1 5 9 3 66. -28. 331. <
318 3 -5 -9 3 65. 265. 350. <
318 2 9 5 3 65. 265. 350. <
318 1 5 9 -3 65. 265. 350. <
319 3 -2 0 -4 11542. 6503. 468. o
319 2 0 2 -4 11542. 6503. 468. o
319 1 2 0 4 11542. 6503. 468. o
320 3 -2 0 4 11584. 6437. 460. o
320 2 0 2 4 11584. 6437. 460. o
320 1 2 0 -4 11584. 6437. 460. o
321 3 -4 0 -4 94871. 109752. 2135. o
321 2 0 4 -4 94871. 109752. 2135. o
321 1 4 0 4 94871. 109752. 2135. o
322 3 -4 0 4 94740. 109195. 2151. o
322 2 0 4 4 94740. 109195. 2151. o
322 1 4 0 -4 94740. 109195. 2151. o
323 3 -6 0 -4 3794. 3913. 387. o
323 2 0 6 -4 3794. 3913. 387. o
323 1 6 0 4 3794. 3913. 387. o
324 3 -6 0 4 3785. 3818. 359. o
324 2 0 6 4 3785. 3818. 359. o
324 1 6 0 -4 3785. 3818. 359. o
325 3 -8 0 -4 12383. 11266. 443. o
325 2 0 8 -4 12383. 11266. 443. o
325 1 8 0 4 12383. 11266. 443. o
326 3 -8 0 4 12397. 11342. 396. o
326 2 0 8 4 12397. 11342. 396. o
326 1 8 0 -4 12397. 11342. 396. o
327 3 -10 0 -4 247. -397. 444. <
327 2 0 10 -4 247. -397. 444. <
327 1 10 0 4 247. -397. 444. <
328 3 -10 0 4 237. 369. 425. <
328 2 0 10 4 237. 369. 425. <
328 1 10 0 -4 237. 369. 425. <
329 3 0 -2 -4 7093. 6399. 466. o
329 2 2 0 -4 7093. 6399. 466. o
329 1 0 2 4 7093. 6399. 466. o
330 3 0 -2 4 7139. 6437. 598. o
330 2 2 0 4 7139. 6437. 598. o
330 1 0 2 -4 7139. 6437. 598. o
331 3 -1 -2 -4 30653. 27854. 465. o
331 1 1 2 4 30653. 27854. 465. o
332 3 -1 -2 4 30675. 27930. 489. o
332 1 1 2 -4 30675. 27930. 489. o
333 3 -2 -2 -4 166900. 177530. 3504. o
333 2 2 2 -4 166900. 177530. 3504. o
333 1 2 2 4 166900. 177530. 3504. o
334 3 -2 -2 4 166689. 174590. 3474. o
334 2 2 2 4 166689. 174590. 3474. o
334 1 2 2 -4 166689. 174590. 3474. o
335 3 -3 -2 -4 12897. 16484. 261. o
335 1 3 2 4 12897. 16484. 261. o
336 3 -3 -2 4 12851. 16399. 273. o
336 1 3 2 -4 12851. 16399. 273. o
337 3 -4 -2 -4 6616. 5879. 269. o
337 2 2 4 -4 6616. 5879. 269. o
337 1 4 2 4 6616. 5879. 269. o
338 3 -4 -2 4 6625. 6210. 267. o
338 2 2 4 4 6625. 6210. 267. o
338 1 4 2 -4 6625. 6210. 267. o
339 3 -5 -2 -4 4384. 4962. 281. o
339 1 5 2 4 4384. 4962. 281. o
340 3 -5 -2 4 4379. 5170. 289. o
340 1 5 2 -4 4379. 5170. 289. o
341 3 -6 -2 -4 31144. 31861. 352. o
341 2 2 6 -4 31144. 31861. 352. o
341 1 6 2 4 31144. 31861. 352. o
342 3 -6 -2 4 31148. 32230. 343. o
342 2 2 6 4 31148. 32230. 343. o
342 1 6 2 -4 31148. 32230. 343. o
343 3 -7 -2 -4 272. 123. 274. <
343 1 7 2 4 272. 123. 274. <
344 3 -7 -2 4 271. 142. 293. <
344 1 7 2 -4 271. 142. 293. <
345 3 -8 -2 -4 916. 1276. 293. o
345 2 2 8 -4 916. 1276. 293. o
345 1 8 2 4 916. 1276. 293. o
346 3 -8 -2 4 901. 1465. 302. o
346 2 2 8 4 901. 1465. 302. o
346 1 8 2 -4 901. 1465. 302. o
347 3 -9 -2 -4 106. 57. 302. <
347 1 9 2 4 106. 57. 302. <
348 3 -9 -2 4 106. 180. 312. <
348 1 9 2 -4 106. 180. 312. <
349 3 -10 -2 -4 3803. 3110. 361. o
349 2 2 10 -4 3803. 3110. 361. o
349 1 10 2 4 3803. 3110. 361. o
350 3 -10 -2 4 3812. 3204. 351. o
350 2 2 10 4 3812. 3204. 351. o
350 1 10 2 -4 3812. 3204. 351. o
351 3 0 -4 -4 83072. 93174. 1848. o
351 2 4 0 -4 83072. 93174. 1848. o
351 1 0 4 4 83072. 93174. 1848. o
352 3 0 -4 4 83029. 96397. 410. o
352 2 4 0 4 83029. 96397. 410. o
352 1 0 4 -4 83029. 96397. 410. o
353 3 -1 -4 -4 47659. 43402. 517. o
353 1 1 4 4 47659. 43402. 517. o
354 3 -1 -4 4 47721. 44290. 722. o
354 1 1 4 -4 47721. 44290. 722. o
355 3 -2 -4 -4 10160. 9178. 274. o
355 2 4 2 -4 10160. 9178. 274. o
355 1 2 4 4 10160. 9178. 274. o
356 3 -2 -4 4 10116. 9206. 292. o
356 2 4 2 4 10116. 9206. 292. o
356 1 2 4 -4 10116. 9206. 292. o
357 3 -3 -4 -4 26448. 26408. 313. o
357 1 3 4 4 26448. 26408. 313. o
358 3 -3 -4 4 26455. 26890. 341. o
358 1 3 4 -4 26455. 26890. 341. o
359 3 -4 -4 -4 43285. 45878. 333. o
359 2 4 4 -4 43285. 45878. 333. o
359 1 4 4 4 43285. 45878. 333. o
360 3 -4 -4 4 43286. 46077. 288. o
360 2 4 4 4 43286. 46077. 288. o
360 1 4 4 -4 43286. 46077. 288. o
361 3 -5 -4 -4 3773. 3507. 256. o
361 1 5 4 4 3773. 3507. 256. o
362 3 -5 -4 4 3768. 3667. 274. o
362 1 5 4 -4 3768. 3667. 274. o
363 3 -6 -4 -4 2114. 2193. 264. o
363 2 4 6 -4 2114. 2193. 264. o
363 1 6 4 4 2114. 2193. 264. o
364 3 -6 -4 4 2096. 2127. 283. o
364 2 4 6 4 2096. 2127. 283. o
364 1 6 4 -4 2096. 2127. 283. o
365 3 -7 -4 -4 1433. 1380. 284. o
365 1 7 4 4 1433. 1380. 284. o
366 3 -7 -4 4 1433. 1285. 265. o
366 1 7 4 -4 1433. 1285. 265. o
367 3 -8 -4 -4 8906. 8592. 361. o
367 2 4 8 -4 8906. 8592. 361. o
367 1 8 4 4 8906. 8592. 361. o
368 3 -8 -4 4 8916. 8488. 353. o
368 2 4 8 4 8916. 8488. 353. o
368 1 8 4 -4 8916. 8488. 353. o
369 3 -9 -4 -4 59. 66. 302. <
369 1 9 4 4 59. 66. 302. <
370 3 -9 -4 4 59. -151. 312. <
370 1 9 4 -4 59. -151. 312. <
371 3 0 -6 -4 8590. 8006. 335. o
371 2 6 0 -4 8590. 8006. 335. o
371 1 0 6 4 8590. 8006. 335. o
372 3 0 -6 4 8552. 8195. 418. o
372 2 6 0 4 8552. 8195. 418. o
372 1 0 6 -4 8552. 8195. 418. o
373 3 -1 -6 -4 18964. 16918. 299. o
373 1 1 6 4 18964. 16918. 299. o
374 3 -1 -6 4 18979. 16956. 358. o
374 1 1 6 -4 18979. 16956. 358. o
375 3 -2 -6 -4 24903. 26616. 293. o
375 2 6 2 -4 24903. 26616. 293. o
375 1 2 6 4 24903. 26616. 293. o
376 3 -2 -6 4 24884. 25028. 518. o
376 2 6 2 4 24884. 25028. 518. o
376 1 2 6 -4 24884. 25028. 518. o
377 3 -3 -6 -4 6707. 6285. 258. o
377 1 3 6 4 6707. 6285. 258. o
378 3 -3 -6 4 6709. 6541. 266. o
378 1 3 6 -4 6709. 6541. 266. o
379 3 -4 -6 -4 2856. 3157. 245. o
379 2 6 4 -4 2856. 3157. 245. o
379 1 4 6 4 2856. 3157. 245. o
380 3 -4 -6 4 2837. 2864. 274. o
380 2 6 4 4 2837. 2864. 274. o
380 1 4 6 -4 2837. 2864. 274. o
381 3 -5 -6 -4 3735. 3507. 313. o
381 1 5 6 4 3735. 3507. 313. o
382 3 -5 -6 4 3735. 3478. 294. o
382 1 5 6 -4 3735. 3478. 294. o
383 3 -6 -6 -4 12264. 12259. 369. o
383 2 6 6 -4 12264. 12259. 369. o
383 1 6 6 4 12264. 12259. 369. o
384 3 -6 -6 4 12268. 12268. 340. o
384 2 6 6 4 12268. 12268. 340. o
384 1 6 6 -4 12268. 12268. 340. o
385 3 -7 -6 -4 206. 113. 302. <
385 1 7 6 4 206. 113. 302. <
386 3 -7 -6 4 207. 189. 293. <
386 1 7 6 -4 207. 189. 293. <
387 3 -8 -6 -4 242. 123. 369. <
387 2 6 8 -4 242. 123. 369. <
387 1 8 6 4 242. 123. 369. <
388 3 -8 -6 4 236. 208. 369. <
388 2 6 8 4 236. 208. 369. <
388 1 8 6 -4 236. 208. 369. <
389 3 0 -8 -4 9534. 9811. 386. o
389 2 8 0 -4 9534. 9811. 386. o
389 1 0 8 4 9534. 9811. 386. o
390 3 0 -8 4 9532. 9669. 481. o
390 2 8 0 4 9532. 9669. 481. o
390 1 0 8 -4 9532. 9669. 481. o
391 3 -1 -8 -4 1585. 1512. 236. o
391 1 1 8 4 1585. 1512. 236. o
392 3 -1 -8 4 1584. 1408. 293. o
392 1 1 8 -4 1584. 1408. 293. o
393 3 -2 -8 -4 1609. 1484. 237. o
393 2 8 2 -4 1609. 1484. 237. o
393 1 2 8 4 1609. 1484. 237. o
394 3 -2 -8 4 1592. 1701. 293. o
394 2 8 2 4 1592. 1701. 293. o
394 1 2 8 -4 1592. 1701. 293. o
395 3 -3 -8 -4 1705. 1550. 274. o
395 1 3 8 4 1705. 1550. 274. o
396 3 -3 -8 4 1704. 1663. 369. o
396 1 3 8 -4 1704. 1663. 369. o
397 3 -4 -8 -4 8580. 8402. 304. o
397 2 8 4 -4 8580. 8402. 304. o
397 1 4 8 4 8580. 8402. 304. o
398 3 -4 -8 4 8581. 8100. 428. o
398 2 8 4 4 8581. 8100. 428. o
398 1 4 8 -4 8581. 8100. 428. o
399 3 -5 -8 -4 130. 132. 302. <
399 1 5 8 4 130. 132. 302. <
400 3 -5 -8 4 130. 189. 321. <
400 1 5 8 -4 130. 189. 321. <
401 3 -6 -8 -4 226. 586. 321. <
401 2 8 6 -4 226. 586. 321. <
401 1 6 8 4 226. 586. 321. <
402 3 -6 -8 4 222. 454. 340. <
402 2 8 6 4 222. 454. 340. <
402 1 6 8 -4 222. 454. 340. <
403 3 0 -10 -4 171. 255. 416. <
403 2 10 0 -4 171. 255. 416. <
403 1 0 10 4 171. 255. 416. <
404 3 0 -10 4 163. 359. 529. <
404 2 10 0 4 163. 359. 529. <
404 1 0 10 -4 163. 359. 529. <
405 3 -1 -10 -4 58. -85. 284. <
405 1 1 10 4 58. -85. 284. <
406 3 -1 -10 4 57. 198. 397. <
406 1 1 10 -4 57. 198. 397. <
407 3 -2 -10 -4 3859. 3913. 321. o
407 2 10 2 -4 3859. 3913. 321. o
407 1 2 10 4 3859. 3913. 321. o
408 3 -2 -10 4 3864. 3970. 444. o
408 2 10 2 4 3864. 3970. 444. o
408 1 2 10 -4 3864. 3970. 444. o
409 3 -3 -10 -4 5. 236. 321. <
409 1 3 10 4 5. 236. 321. <
410 3 -3 -10 4 5. 66. 425. <
410 1 3 10 -4 5. 66. 425. <
411 3 0 -1 -5 1539. 690. 407. <
411 1 0 1 5 1539. 690. 407. <
412 3 -1 -1 -5 11233. 15784. 403. o
412 2 1 1 -5 11233. 15784. 403. o
412 1 1 1 5 11233. 15784. 403. o
413 3 -1 -1 5 11310. 15709. 342. o
413 2 1 1 5 11310. 15709. 342. o
413 1 1 1 -5 11310. 15709. 342. o
414 3 -2 -1 -5 17429. 15283. 419. o
414 1 2 1 5 17429. 15283. 419. o
415 3 -2 -1 5 17430. 15330. 383. o
415 1 2 1 -5 17430. 15330. 383. o
416 3 -3 -1 -5 14187. 12117. 360. o
416 2 1 3 -5 14187. 12117. 360. o
416 1 3 1 5 14187. 12117. 360. o
417 3 -3 -1 5 14191. 12608. 347. o
417 2 1 3 5 14191. 12608. 347. o
417 1 3 1 -5 14191. 12608. 347. o
418 3 -4 -1 -5 1980. 2694. 282. o
418 1 4 1 5 1980. 2694. 282. o
419 3 -4 -1 5 1990. 2864. 262. o
419 1 4 1 -5 1990. 2864. 262. o
420 3 -5 -1 -5 6315. 5293. 280. o
420 2 1 5 -5 6315. 5293. 280. o
420 1 5 1 5 6315. 5293. 280. o
421 3 -5 -1 5 6333. 6058. 304. o
421 2 1 5 5 6333. 6058. 304. o
421 1 5 1 -5 6333. 6058. 304. o
422 3 -6 -1 -5 2461. 2505. 274. o
422 1 6 1 5 2461. 2505. 274. o
423 3 -6 -1 5 2458. 2552. 293. o
423 1 6 1 -5 2458. 2552. 293. o
424 3 -7 -1 -5 11502. 11881. 318. o
424 2 1 7 -5 11502. 11881. 318. o
424 1 7 1 5 11502. 11881. 318. o
425 3 -7 -1 5 11507. 11578. 311. o
425 2 1 7 5 11507. 11578. 311. o
425 1 7 1 -5 11507. 11578. 311. o
426 3 -8 -1 -5 424. 529. 265. <
426 1 8 1 5 424. 529. 265. <
427 3 -8 -1 5 425. 558. 283. <
427 1 8 1 -5 425. 558. 283. <
428 3 -9 -1 -5 2895. 2760. 331. o
428 2 1 9 -5 2895. 2760. 331. o
428 1 9 1 5 2895. 2760. 331. o
429 3 -9 -1 5 2897. 3043. 312. o
429 2 1 9 5 2897. 3043. 312. o
429 1 9 1 -5 2897. 3043. 312. o
430 3 -10 -1 -5 231. 482. 312. <
430 1 10 1 5 231. 482. 312. <
431 3 -10 -1 5 231. 180. 312. <
431 1 10 1 -5 231. 180. 312. <
432 3 0 -3 -5 20796. 23761. 359. o
432 1 0 3 5 20796. 23761. 359. o
433 3 0 -3 5 20626. 25330. 665. o
433 1 0 3 -5 20626. 25330. 665. o
434 3 -1 -3 -5 18056. 19801. 303. o
434 2 3 1 -5 18056. 19801. 303. o
434 1 1 3 5 18056. 19801. 303. o
435 3 -1 -3 5 17994. 19981. 340. o
435 2 3 1 5 17994. 19981. 340. o
435 1 1 3 -5 17994. 19981. 340. o
436 3 -2 -3 -5 659. 255. 236. <
436 1 2 3 5 659. 255. 236. <
437 3 -2 -3 5 703. 331. 265. <
437 1 2 3 -5 703. 331. 265. <
438 3 -3 -3 -5 4484. 4631. 302. o
438 2 3 3 -5 4484. 4631. 302. o
438 1 3 3 5 4484. 4631. 302. o
439 3 -3 -3 5 4469. 5028. 300. o
439 2 3 3 5 4469. 5028. 300. o
439 1 3 3 -5 4469. 5028. 300. o
440 3 -4 -3 -5 8209. 7561. 270. o
440 1 4 3 5 8209. 7561. 270. o
441 3 -4 -3 5 8179. 7353. 299. o
441 1 4 3 -5 8179. 7353. 299. o
442 3 -5 -3 -5 27162. 26720. 322. o
442 2 3 5 -5 27162. 26720. 322. o
442 1 5 3 5 27162. 26720. 322. o
443 3 -5 -3 5 27153. 27202. 339. o
443 2 3 5 5 27153. 27202. 339. o
443 1 5 3 -5 27153. 27202. 339. o
444 3 -6 -3 -5 301. 359. 255. <
444 1 6 3 5 301. 359. 255. <
445 3 -6 -3 5 302. 595. 264. o
445 1 6 3 -5 302. 595. 264. o
446 3 -7 -3 -5 1745. 1692. 293. o
446 2 3 7 -5 1745. 1692. 293. o
446 1 7 3 5 1745. 1692. 293. o
447 3 -7 -3 5 1750. 1711. 293. o
447 2 3 7 5 1750. 1711. 293. o
447 1 7 3 -5 1750. 1711. 293. o
448 3 -8 -3 -5 961. 1163. 274. o
448 1 8 3 5 961. 1163. 274. o
449 3 -8 -3 5 960. 1125. 302. o
449 1 8 3 -5 960. 1125. 302. o
450 3 -9 -3 -5 8417. 8450. 340. o
450 2 3 9 -5 8417. 8450. 340. o
450 1 9 3 5 8417. 8450. 340. o
451 3 -9 -3 5 8417. 8573. 339. o
451 2 3 9 5 8417. 8573. 339. o
451 1 9 3 -5 8417. 8573. 339. o
452 3 -10 -3 -5 95. 312. 350. <
452 1 10 3 5 95. 312. 350. <
453 3 -10 -3 5 95. 416. 350. <
453 1 10 3 -5 95. 416. 350. <
454 3 0 -5 -5 131. 9. 284. <
454 1 0 5 5 131. 9. 284. <
455 3 0 -5 5 132. 0. 397. <
455 1 0 5 -5 132. 0. 397. <
456 3 -1 -5 -5 18254. 18053. 315. o
456 2 5 1 -5 18254. 18053. 315. o
456 1 1 5 5 18254. 18053. 315. o
457 3 -1 -5 5 18183. 17552. 432. o
457 2 5 1 5 18183. 17552. 432. o
457 1 1 5 -5 18183. 17552. 432. o
458 3 -2 -5 -5 9153. 10406. 252. o
458 1 2 5 5 9153. 10406. 252. o
459 3 -2 -5 5 9135. 10463. 271. o
459 1 2 5 -5 9135. 10463. 271. o
460 3 -3 -5 -5 38253. 38827. 332. o
460 2 5 3 -5 38253. 38827. 332. o
460 1 3 5 5 38253. 38827. 332. o
461 3 -3 -5 5 38198. 38695. 374. o
461 2 5 3 5 38198. 38695. 374. o
461 1 3 5 -5 38198. 38695. 374. o
462 3 -4 -5 -5 138. 170. 236. <
462 1 4 5 5 138. 170. 236. <
463 3 -4 -5 5 138. 123. 255. <
463 1 4 5 -5 138. 123. 255. <
464 3 -5 -5 -5 1837. 1786. 293. o
464 2 5 5 -5 1837. 1786. 293. o
464 1 5 5 5 1837. 1786. 293. o
465 3 -5 -5 5 1834. 1701. 293. o
465 2 5 5 5 1834. 1701. 293. o
465 1 5 5 -5 1834. 1701. 293. o
466 3 -6 -5 -5 2426. 2306. 265. o
466 1 6 5 5 2426. 2306. 265. o
467 3 -6 -5 5 2425. 2240. 293. o
467 1 6 5 -5 2425. 2240. 293. o
468 3 -7 -5 -5 18837. 18072. 360. o
468 2 5 7 -5 18837. 18072. 360. o
468 1 7 5 5 18837. 18072. 360. o
469 3 -7 -5 5 18829. 18431. 346. o
469 2 5 7 5 18829. 18431. 346. o
469 1 7 5 -5 18829. 18431. 346. o
470 3 -8 -5 -5 110. 47. 321. <
470 1 8 5 5 110. 47. 321. <
471 3 -8 -5 5 110. 9. 312. <
471 1 8 5 -5 110. 9. 312. <
472 3 -9 -5 -5 174. 406. 331. <
472 2 5 9 -5 174. 406. 331. <
472 1 9 5 5 174. 406. 331. <
473 3 -9 -5 5 175. 463. 350. <
473 2 5 9 5 175. 463. 350. <
473 1 9 5 -5 175. 463. 350. <
474 3 0 -7 -5 4910. 5312. 329. o
474 1 0 7 5 4910. 5312. 329. o
475 3 0 -7 5 4902. 5463. 404. o
475 1 0 7 -5 4902. 5463. 404. o
476 3 -1 -7 -5 26344. 26294. 304. o
476 2 7 1 -5 26344. 26294. 304. o
476 1 1 7 5 26344. 26294. 304. o
477 3 -1 -7 5 26290. 26115. 372. o
477 2 7 1 5 26290. 26115. 372. o
477 1 1 7 -5 26290. 26115. 372. o
478 3 -2 -7 -5 297. 104. 255. <
478 1 2 7 5 297. 104. 255. <
479 3 -2 -7 5 296. 95. 312. <
479 1 2 7 -5 296. 95. 312. <
480 3 -3 -7 -5 5627. 5576. 255. o
480 2 7 3 -5 5627. 5576. 255. o
480 1 3 7 5 5627. 5576. 255. o
481 3 -3 -7 5 5610. 5255. 361. o
481 2 7 3 5 5610. 5255. 361. o
481 1 3 7 -5 5610. 5255. 361. o
482 3 -4 -7 -5 2673. 2590. 274. o
482 1 4 7 5 2673. 2590. 274. o
483 3 -4 -7 5 2671. 2524. 303. o
483 1 4 7 -5 2671. 2524. 303. o
484 3 -5 -7 -5 22754. 22192. 341. o
484 2 7 5 -5 22754. 22192. 341. o
484 1 5 7 5 22754. 22192. 341. o
485 3 -5 -7 5 22736. 22003. 371. o
485 2 7 5 5 22736. 22003. 371. o
485 1 5 7 -5 22736. 22003. 371. o
486 3 -6 -7 -5 105. 198. 293. <
486 1 6 7 5 105. 198. 293. <
487 3 -6 -7 5 105. 66. 312. <
487 1 6 7 -5 105. 66. 312. <
488 3 -7 -7 -5 120. 567. 387. <
488 2 7 7 -5 120. 567. 387. <
488 1 7 7 5 120. 567. 387. <
489 3 -7 -7 5 123. 227. 331. <
489 2 7 7 5 123. 227. 331. <
489 1 7 7 -5 123. 227. 331. <
490 3 0 -9 -5 356. -85. 369. <
490 1 0 9 5 356. -85. 369. <
491 3 0 -9 5 354. 189. 473. <
491 1 0 9 -5 354. 189. 473. <
492 3 -1 -9 -5 7441. 7325. 284. o
492 2 9 1 -5 7441. 7325. 284. o
492 1 1 9 5 7441. 7325. 284. o
493 3 -1 -9 5 7435. 7561. 358. o
493 2 9 1 5 7435. 7561. 358. o
493 1 1 9 -5 7435. 7561. 358. o
494 3 -2 -9 -5 1374. 1267. 274. o
494 1 2 9 5 1374. 1267. 274. o
495 3 -2 -9 5 1373. 1370. 340. o
495 1 2 9 -5 1373. 1370. 340. o
496 3 -3 -9 -5 13590. 13780. 367. o
496 2 9 3 -5 13590. 13780. 367. o
496 1 3 9 5 13590. 13780. 367. o
497 3 -3 -9 5 13581. 13346. 408. o
497 2 9 3 5 13581. 13346. 408. o
497 1 3 9 -5 13581. 13346. 408. o
498 3 -4 -9 -5 119. 19. 312. <
498 1 4 9 5 119. 19. 312. <
499 3 -4 -9 5 119. -85. 473. <
499 1 4 9 -5 119. -85. 473. <
500 3 -5 -9 -5 524. 737. 350. o
500 2 9 5 -5 524. 737. 350. o
500 1 5 9 5 524. 737. 350. o
501 3 -5 -9 5 527. 614. 605. <
501 2 9 5 5 527. 614. 605. <
501 1 5 9 -5 527. 614. 605. <
502 3 0 0 -6 208983. 147549. 2960. o
502 2 0 0 -6 208983. 147549. 2960. o
502 1 0 0 6 208983. 147549. 2960. o
503 3 -2 0 -6 586400. 576719. 2556. o
503 2 0 2 -6 586400. 576719. 2556. o
503 1 2 0 6 586400. 576719. 2556. o
504 3 -2 0 6 586883. 568080. 3032. o
504 2 0 2 6 586883. 568080. 3032. o
504 1 2 0 -6 586883. 568080. 3032. o
505 3 -4 0 -6 210649. 200970. 1415. o
505 2 0 4 -6 210649. 200970. 1415. o
505 1 4 0 6 210649. 200970. 1415. o
506 3 -4 0 6 210625. 198635. 1498. o
506 2 0 4 6 210625. 198635. 1498. o
506 1 4 0 -6 210625. 198635. 1498. o
507 3 -6 0 -6 33715. 32684. 501. o
507 2 0 6 -6 33715. 32684. 501. o
507 1 6 0 6 33715. 32684. 501. o
508 3 -6 0 6 33740. 31757. 561. o
508 2 0 6 6 33740. 31757. 561. o
508 1 6 0 -6 33740. 31757. 561. o
509 3 -8 0 -6 58908. 62749. 430. o
509 2 0 8 -6 58908. 62749. 430. o
509 1 8 0 6 58908. 62749. 430. o
510 3 -8 0 6 58905. 62116. 511. o
510 2 0 8 6 58905. 62116. 511. o
510 1 8 0 -6 58905. 62116. 511. o
511 3 -10 0 -6 243. 142. 491. <
511 2 0 10 -6 243. 142. 491. <
511 1 10 0 6 243. 142. 491. <
512 3 -10 0 6 246. 369. 444. <
512 2 0 10 6 246. 369. 444. <
512 1 10 0 -6 246. 369. 444. <
513 3 0 -2 -6 527010. 533336. 906. o
513 2 2 0 -6 527010. 533336. 906. o
513 1 0 2 6 527010. 533336. 906. o
514 3 -1 -2 -6 9398. 9291. 322. o
514 1 1 2 6 9398. 9291. 322. o
515 3 -1 -2 6 9313. 9225. 426. o
515 1 1 2 -6 9313. 9225. 426. o
516 3 -2 -2 -6 261411. 236300. 2004. o
516 2 2 2 -6 261411. 236300. 2004. o
516 1 2 2 6 261411. 236300. 2004. o
517 3 -2 -2 6 261404. 234684. 2077. o
517 2 2 2 6 261404. 234684. 2077. o
517 1 2 2 -6 261404. 234684. 2077. o
518 3 -3 -2 -6 2662. 3866. 270. o
518 1 3 2 6 2662. 3866. 270. o
519 3 -3 -2 6 2628. 3913. 298. o
519 1 3 2 -6 2628. 3913. 298. o
520 3 -4 -2 -6 113082. 118485. 2358. o
520 2 2 4 -6 113082. 118485. 2358. o
520 1 4 2 6 113082. 118485. 2358. o
521 3 -4 -2 6 113117. 120896. 2383. o
521 2 2 4 6 113117. 120896. 2383. o
521 1 4 2 -6 113117. 120896. 2383. o
522 3 -5 -2 -6 153. 217. 255. <
522 1 5 2 6 153. 217. 255. <
523 3 -5 -2 6 150. 132. 255. <
523 1 5 2 -6 150. 132. 255. <
524 3 -6 -2 -6 128459. 131784. 262. o
524 2 2 6 -6 128459. 131784. 262. o
524 1 6 2 6 128459. 131784. 262. o
525 3 -6 -2 6 128443. 133258. 2656. o
525 2 2 6 6 128443. 133258. 2656. o
525 1 6 2 -6 128443. 133258. 2656. o
526 3 -7 -2 -6 15. 142. 302. <
526 1 7 2 6 15. 142. 302. <
527 3 -7 -2 6 16. 236. 293. <
527 1 7 2 -6 16. 236. 293. <
528 3 -8 -2 -6 3391. 2996. 294. o
528 2 2 8 -6 3391. 2996. 294. o
528 1 8 2 6 3391. 2996. 294. o
529 3 -8 -2 6 3399. 2665. 286. o
529 2 2 8 6 3399. 2665. 286. o
529 1 8 2 -6 3399. 2665. 286. o
530 3 -9 -2 -6 2. -142. 312. <
530 1 9 2 6 2. -142. 312. <
531 3 -9 -2 6 2. 151. 321. <
531 1 9 2 -6 2. 151. 321. <
532 3 -10 -2 -6 18192. 17467. 378. o
532 2 2 10 -6 18192. 17467. 378. o
532 1 10 2 6 18192. 17467. 378. o
533 3 -10 -2 6 18189. 17731. 384. o
533 2 2 10 6 18189. 17731. 384. o
533 1 10 2 -6 18189. 17731. 384. o
534 3 0 -4 -6 344391. 319474. 2353. o
534 2 4 0 -6 344391. 319474. 2353. o
534 1 0 4 6 344391. 319474. 2353. o
535 3 0 -4 6 344351. 323595. 2611. o
535 2 4 0 6 344351. 323595. 2611. o
535 1 0 4 -6 344351. 323595. 2611. o
536 3 -1 -4 -6 9721. 11266. 287. o
536 1 1 4 6 9721. 11266. 287. o
537 3 -1 -4 6 9695. 11210. 366. o
537 1 1 4 -6 9695. 11210. 366. o
538 3 -2 -4 -6 66475. 73430. 1452. o
538 2 4 2 -6 66475. 73430. 1452. o
538 1 2 4 6 66475. 73430. 1452. o
539 3 -2 -4 6 66465. 73118. 1462. o
539 2 4 2 6 66465. 73118. 1462. o
539 1 2 4 -6 66465. 73118. 1462. o
540 3 -3 -4 -6 2523. 2835. 245. o
540 1 3 4 6 2523. 2835. 245. o
541 3 -3 -4 6 2511. 2750. 273. o
541 1 3 4 -6 2511. 2750. 273. o
542 3 -4 -4 -6 201395. 202000. 651. o
542 2 4 4 -6 201395. 202000. 651. o
542 1 4 4 6 201395. 202000. 651. o
543 3 -4 -4 6 201358. 198474. 863. o
543 2 4 4 6 201358. 198474. 863. o
543 1 4 4 -6 201358. 198474. 863. o
544 3 -5 -4 -6 69. 350. 227. <
544 1 5 4 6 69. 350. 227. <
545 3 -5 -4 6 68. 132. 255. <
545 1 5 4 -6 68. 132. 255. <
546 3 -6 -4 -6 9176. 9830. 297. o
546 2 4 6 -6 9176. 9830. 297. o
546 1 6 4 6 9176. 9830. 297. o
547 3 -6 -4 6 9182. 10548. 300. o
547 2 4 6 6 9182. 10548. 300. o
547 1 6 4 -6 9182. 10548. 300. o
548 3 -7 -4 -6 13. 388. 283. <
548 1 7 4 6 13. 388. 283. <
549 3 -7 -4 6 13. 406. 274. <
549 1 7 4 -6 13. 406. 274. <
550 3 -8 -4 -6 44259. 43837. 455. o
550 2 4 8 -6 44259. 43837. 455. o
550 1 8 4 6 44259. 43837. 455. o
551 3 -8 -4 6 44255. 44158. 428. o
551 2 4 8 6 44255. 44158. 428. o
551 1 8 4 -6 44255. 44158. 428. o
552 3 -9 -4 -6 44. 246. 331. <
552 1 9 4 6 44. 246. 331. <
553 3 -9 -4 6 44. 161. 340. <
553 1 9 4 -6 44. 161. 340. <
554 3 0 -6 -6 3557. 3053. 313. o
554 2 6 0 -6 3557. 3053. 313. o
554 1 0 6 6 3557. 3053. 313. o
555 3 0 -6 6 3510. 3100. 407. o
555 2 6 0 6 3510. 3100. 407. o
555 1 0 6 -6 3510. 3100. 407. o
556 3 -1 -6 -6 1105. 1370. 217. o
556 1 1 6 6 1105. 1370. 217. o
557 3 -1 -6 6 1102. 1115. 284. o
557 1 1 6 -6 1102. 1115. 284. o
558 3 -2 -6 -6 214637. 210393. 964. o
558 2 6 2 -6 214637. 210393. 964. o
558 1 2 6 6 214637. 210393. 964. o
559 3 -2 -6 6 214665. 211546. 1053. o
559 2 6 2 6 214665. 211546. 1053. o
559 1 2 6 -6 214665. 211546. 1053. o
560 3 -3 -6 -6 204. 350. 236. <
560 1 3 6 6 204. 350. 236. <
561 3 -3 -6 6 203. 293. 265. <
561 1 3 6 -6 203. 293. 265. <
562 3 -4 -6 -6 3220. 3856. 243. o
562 2 6 4 -6 3220. 3856. 243. o
562 1 4 6 6 3220. 3856. 243. o
563 3 -4 -6 6 3207. 3875. 291. o
563 2 6 4 6 3207. 3875. 291. o
563 1 4 6 -6 3207. 3875. 291. o
564 3 -5 -6 -6 11. 113. 265. <
564 1 5 6 6 11. 113. 265. <
565 3 -5 -6 6 11. 142. 274. <
565 1 5 6 -6 11. 142. 274. <
566 3 -6 -6 -6 68842. 65868. 582. o
566 2 6 6 -6 68842. 65868. 582. o
566 1 6 6 6 68842. 65868. 582. o
567 3 -6 -6 6 68840. 66360. 551. o
567 2 6 6 6 68840. 66360. 551. o
567 1 6 6 -6 68840. 66360. 551. o
568 3 -7 -6 -6 63. 482. 293. <
568 1 7 6 6 63. 482. 293. <
569 3 -7 -6 6 63. 321. 312. <
569 1 7 6 -6 63. 321. 312. <
570 3 -8 -6 -6 817. 1531. 330. o
570 2 6 8 -6 817. 1531. 330. o
570 1 8 6 6 817. 1531. 330. o
571 3 -8 -6 6 817. 1181. 340. o
571 2 6 8 6 817. 1181. 340. o
571 1 8 6 -6 817. 1181. 340. o
572 3 0 -8 -6 113148. 111813. 711. o
572 2 8 0 -6 113148. 111813. 711. o
572 1 0 8 6 113148. 111813. 711. o
573 3 0 -8 6 113139. 113675. 909. o
573 2 8 0 6 113139. 113675. 909. o
573 1 0 8 -6 113139. 113675. 909. o
574 3 -1 -8 -6 148. 265. 227. <
574 1 1 8 6 148. 265. 227. <
575 3 -1 -8 6 148. 312. 340. <
575 1 1 8 -6 148. 312. 340. <
576 3 -2 -8 -6 460. 132. 246. <
576 2 8 2 -6 460. 132. 246. <
576 1 2 8 6 460. 132. 246. <
577 3 -2 -8 6 456. 246. 321. <
577 2 8 2 6 456. 246. 321. <
577 1 2 8 -6 456. 246. 321. <
578 3 -3 -8 -6 141. 302. 255. <
578 1 3 8 6 141. 302. 255. <
579 3 -3 -8 6 141. 217. 388. <
579 1 3 8 -6 141. 217. 388. <
580 3 -4 -8 -6 62496. 60793. 503. o
580 2 8 4 -6 62496. 60793. 503. o
580 1 4 8 6 62496. 60793. 503. o
581 3 -4 -8 6 62490. 61936. 519. o
581 2 8 4 6 62490. 61936. 519. o
581 1 4 8 -6 62490. 61936. 519. o
582 3 -5 -8 -6 90. 255. 293. <
582 1 5 8 6 90. 255. 293. <
583 3 -5 -8 6 90. 312. 350. <
583 1 5 8 -6 90. 312. 350. <
584 3 -6 -8 -6 345. 501. 340. <
584 2 8 6 -6 345. 501. 340. <
584 1 6 8 6 345. 501. 340. <
585 3 -6 -8 6 345. 577. 359. <
585 2 8 6 6 345. 577. 359. <
585 1 6 8 -6 345. 577. 359. <
586 3 0 -10 -6 858. 558. 407. <
586 2 10 0 -6 858. 558. 407. <
586 1 0 10 6 858. 558. 407. <
587 3 0 -10 6 861. 860. 586. <
587 2 10 0 6 861. 860. 586. <
587 1 0 10 -6 861. 860. 586. <
588 3 -1 -10 -6 357. 510. 293. <
588 1 1 10 6 357. 510. 293. <
589 3 -1 -10 6 357. 482. 406. <
589 1 1 10 -6 357. 482. 406. <
590 3 -2 -10 -6 29387. 28516. 404. o
590 2 10 2 -6 29387. 28516. 404. o
590 1 2 10 6 29387. 28516. 404. o
591 3 -2 -10 6 29380. 28109. 547. o
591 2 10 2 6 29380. 28109. 547. o
591 1 2 10 -6 29380. 28109. 547. o
592 3 -3 -10 -6 190. 189. 321. <
592 1 3 10 6 190. 189. 321. <
593 3 -3 -10 6 190. 227. 454. <
593 1 3 10 -6 190. 227. 454. <
594 3 0 -1 -7 678. 350. 340. <
594 1 0 1 7 678. 350. 340. <
595 3 -1 -1 -7 7773. 6200. 321. o
595 2 1 1 -7 7773. 6200. 321. o
595 1 1 1 7 7773. 6200. 321. o
596 3 -1 -1 7 7756. 6049. 312. o
596 2 1 1 7 7756. 6049. 312. o
596 1 1 1 -7 7756. 6049. 312. o
597 3 -2 -1 -7 15394. 15123. 362. o
597 1 2 1 7 15394. 15123. 362. o
598 3 -2 -1 7 15522. 14990. 319. o
598 1 2 1 -7 15522. 14990. 319. o
599 3 -3 -1 -7 883. 1115. 255. o
599 2 1 3 -7 883. 1115. 255. o
599 1 3 1 7 883. 1115. 255. o
600 3 -3 -1 7 974. 1465. 273. o
600 2 1 3 7 974. 1465. 273. o
600 1 3 1 -7 974. 1465. 273. o
601 3 -4 -1 -7 1346. 1805. 264. o
601 1 4 1 7 1346. 1805. 264. o
602 3 -4 -1 7 1333. 1626. 283. o
602 1 4 1 -7 1333. 1626. 283. o
603 3 -5 -1 -7 2518. 2628. 283. o
603 2 1 5 -7 2518. 2628. 283. o
603 1 5 1 7 2518. 2628. 283. o
604 3 -5 -1 7 2533. 2004. 275. o
604 2 1 5 7 2533. 2004. 275. o
604 1 5 1 -7 2533. 2004. 275. o
605 3 -6 -1 -7 1323. 1077. 255. o
605 1 6 1 7 1323. 1077. 255. o
606 3 -6 -1 7 1325. 1030. 256. o
606 1 6 1 -7 1325. 1030. 256. o
607 3 -7 -1 -7 11595. 11956. 308. o
607 2 1 7 -7 11595. 11956. 308. o
607 1 7 1 7 11595. 11956. 308. o
608 3 -7 -1 7 11610. 12183. 316. o
608 2 1 7 7 11610. 12183. 316. o
608 1 7 1 -7 11610. 12183. 316. o
609 3 -8 -1 -7 553. 784. 274. o
609 1 8 1 7 553. 784. 274. o
610 3 -8 -1 7 553. 690. 293. o
610 1 8 1 -7 553. 690. 293. o
611 3 -9 -1 -7 3126. 3554. 320. o
611 2 1 9 -7 3126. 3554. 320. o
611 1 9 1 7 3126. 3554. 320. o
612 3 -9 -1 7 3126. 3847. 310. o
612 2 1 9 7 3126. 3847. 310. o
612 1 9 1 -7 3126. 3847. 310. o
613 3 -10 -1 -7 157. 170. 321. <
613 1 10 1 7 157. 170. 321. <
614 3 -10 -1 7 157. 359. 321. <
614 1 10 1 -7 157. 359. 321. <
615 3 0 -3 -7 25344. 30727. 326. o
615 1 0 3 7 25344. 30727. 326. o
616 3 0 -3 7 25411. 32334. 1005. o
616 1 0 3 -7 25411. 32334. 1005. o
617 3 -1 -3 -7 7656. 12212. 278. o
617 2 3 1 -7 7656. 12212. 278. o
617 1 1 3 7 7656. 12212. 278. o
618 3 -1 -3 7 7771. 12212. 374. o
618 2 3 1 7 7771. 12212. 374. o
618 1 1 3 -7 7771. 12212. 374. o
619 3 -2 -3 -7 376. 614. 255. o
619 1 2 3 7 376. 614. 255. o
620 3 -2 -3 7 377. 709. 302. o
620 1 2 3 -7 377. 709. 302. o
621 3 -3 -3 -7 1007. 1219. 245. o
621 2 3 3 -7 1007. 1219. 245. o
621 1 3 3 7 1007. 1219. 245. o
622 3 -3 -3 7 1017. 1560. 311. o
622 2 3 3 7 1017. 1560. 311. o
622 1 3 3 -7 1017. 1560. 311. o
623 3 -4 -3 -7 4169. 4707. 272. o
623 1 4 3 7 4169. 4707. 272. o
624 3 -4 -3 7 4181. 4745. 281. o
624 1 4 3 -7 4181. 4745. 281. o
625 3 -5 -3 -7 26674. 26899. 316. o
625 2 3 5 -7 26674. 26899. 316. o
625 1 5 3 7 26674. 26899. 316. o
626 3 -5 -3 7 26719. 26890. 346. o
626 2 3 5 7 26719. 26890. 346. o
626 1 5 3 -7 26719. 26890. 346. o
627 3 -6 -3 -7 932. 1437. 264. o
627 1 6 3 7 932. 1437. 264. o
628 3 -6 -3 7 931. 1503. 264. o
628 1 6 3 -7 931. 1503. 264. o
629 3 -7 -3 -7 1599. 1172. 265. o
629 2 3 7 -7 1599. 1172. 265. o
629 1 7 3 7 1599. 1172. 265. o
630 3 -7 -3 7 1589. 2618. 281. o
630 2 3 7 7 1589. 2618. 281. o
630 1 7 3 -7 1589. 2618. 281. o
631 3 -8 -3 -7 244. 359. 293. <
631 1 8 3 7 244. 359. 293. <
632 3 -8 -3 7 243. 104. 293. <
632 1 8 3 -7 243. 104. 293. <
633 3 -9 -3 -7 9777. 9877. 339. o
633 2 3 9 -7 9777. 9877. 339. o
633 1 9 3 7 9777. 9877. 339. o
634 3 -9 -3 7 9783. 10179. 347. o
634 2 3 9 7 9783. 10179. 347. o
634 1 9 3 -7 9783. 10179. 347. o
635 3 0 -5 -7 413. 38. 284. <
635 1 0 5 7 413. 38. 284. <
636 3 0 -5 7 418. 208. 425. <
636 1 0 5 -7 418. 208. 425. <
637 3 -1 -5 -7 22703. 24763. 255. o
637 2 5 1 -7 22703. 24763. 255. o
637 1 1 5 7 22703. 24763. 255. o
638 3 -1 -5 7 22686. 25160. 365. o
638 2 5 1 7 22686. 25160. 365. o
638 1 1 5 -7 22686. 25160. 365. o
639 3 -2 -5 -7 4725. 5662. 240. o
639 1 2 5 7 4725. 5662. 240. o
640 3 -2 -5 7 4739. 5747. 288. o
640 1 2 5 -7 4739. 5747. 288. o
641 3 -3 -5 -7 46493. 48534. 301. o
641 2 5 3 -7 46493. 48534. 301. o
641 1 3 5 7 46493. 48534. 301. o
642 3 -3 -5 7 46513. 48090. 375. o
642 2 5 3 7 46513. 48090. 375. o
642 1 3 5 -7 46513. 48090. 375. o
643 3 -4 -5 -7 531. 529. 227. o
643 1 4 5 7 531. 529. 227. o
644 3 -4 -5 7 530. 321. 274. <
644 1 4 5 -7 530. 321. 274. <
645 3 -5 -5 -7 2081. 1994. 303. o
645 2 5 5 -7 2081. 1994. 303. o
645 1 5 5 7 2081. 1994. 303. o
646 3 -5 -5 7 2058. 2042. 293. o
646 2 5 5 7 2058. 2042. 293. o
646 1 5 5 -7 2058. 2042. 293. o
647 3 -6 -5 -7 232. 473. 312. <
647 1 6 5 7 232. 473. 312. <
648 3 -6 -5 7 231. 473. 283. <
648 1 6 5 -7 231. 473. 283. <
649 3 -7 -5 -7 22250. 20992. 361. o
649 2 5 7 -7 22250. 20992. 361. o
649 1 7 5 7 22250. 20992. 361. o
650 3 -7 -5 7 22265. 21200. 367. o
650 2 5 7 7 22265. 21200. 367. o
650 1 7 5 -7 22265. 21200. 367. o
651 3 -8 -5 -7 345. 699. 340. o
651 1 8 5 7 345. 699. 340. o
652 3 -8 -5 7 346. 936. 312. o
652 1 8 5 -7 346. 936. 312. o
653 3 -9 -5 -7 161. 501. 359. <
653 2 5 9 -7 161. 501. 359. <
653 1 9 5 7 161. 501. 359. <
654 3 -9 -5 7 156. 529. 350. <
654 2 5 9 7 156. 529. 350. <
654 1 9 5 -7 156. 529. 350. <
655 3 0 -7 -7 421. 747. 312. o
655 1 0 7 7 421. 747. 312. o
656 3 0 -7 7 421. 624. 454. <
656 1 0 7 -7 421. 624. 454. <
657 3 -1 -7 -7 40993. 39215. 384. o
657 2 7 1 -7 40993. 39215. 384. o
657 1 1 7 7 40993. 39215. 384. o
658 3 -1 -7 7 40993. 39801. 508. o
658 2 7 1 7 40993. 39801. 508. o
658 1 1 7 -7 40993. 39801. 508. o
659 3 -2 -7 -7 711. 331. 265. <
659 1 2 7 7 711. 331. 265. <
660 3 -2 -7 7 712. 624. 303. o
660 1 2 7 -7 712. 624. 303. o
661 3 -3 -7 -7 9344. 8998. 296. o
661 2 7 3 -7 9344. 8998. 296. o
661 1 3 7 7 9344. 8998. 296. o
662 3 -3 -7 7 9326. 9253. 388. o
662 2 7 3 7 9326. 9253. 388. o
662 1 3 7 -7 9326. 9253. 388. o
663 3 -4 -7 -7 83. 246. 255. <
663 1 4 7 7 83. 246. 255. <
664 3 -4 -7 7 82. 170. 312. <
664 1 4 7 -7 82. 170. 312. <
665 3 -5 -7 -7 28853. 28430. 350. o
665 2 7 5 -7 28853. 28430. 350. o
665 1 5 7 7 28853. 28430. 350. o
666 3 -5 -7 7 28866. 27816. 407. o
666 2 7 5 7 28866. 27816. 407. o
666 1 5 7 -7 28866. 27816. 407. o
667 3 -6 -7 -7 404. 586. 302. <
667 1 6 7 7 404. 586. 302. <
668 3 -6 -7 7 405. 747. 340. o
668 1 6 7 -7 405. 747. 340. o
669 3 -7 -7 -7 171. 425. 312. <
669 2 7 7 -7 171. 425. 312. <
669 1 7 7 7 171. 425. 312. <
670 3 -7 -7 7 160. 378. 350. <
670 2 7 7 7 160. 378. 350. <
670 1 7 7 -7 160. 378. 350. <
671 3 0 -9 -7 969. 945. 378. o
671 1 0 9 7 969. 945. 378. o
672 3 0 -9 7 971. 832. 510. <
672 1 0 9 -7 971. 832. 510. <
673 3 -1 -9 -7 12054. 11021. 304. o
673 2 9 1 -7 12054. 11021. 304. o
673 1 1 9 7 12054. 11021. 304. o
674 3 -1 -9 7 12046. 11285. 412. o
674 2 9 1 7 12046. 11285. 412. o
674 1 1 9 -7 12046. 11285. 412. o
675 3 -2 -9 -7 116. -47. 265. <
675 1 2 9 7 116. -47. 265. <
676 3 -2 -9 7 115. 95. 378. <
676 1 2 9 -7 115. 95. 378. <
677 3 -3 -9 -7 18668. 18402. 391. o
677 2 9 3 -7 18668. 18402. 391. o
677 1 3 9 7 18668. 18402. 391. o
678 3 -3 -9 7 18670. 17665. 483. o
678 2 9 3 7 18670. 17665. 483. o
678 1 3 9 -7 18670. 17665. 483. o
679 3 -4 -9 -7 407. 643. 312. o
679 1 4 9 7 407. 643. 312. o
680 3 -4 -9 7 408. 236. 539. <
680 1 4 9 -7 408. 236. 539. <
681 3 -5 -9 -7 773. 662. 350. <
681 2 9 5 -7 773. 662. 350. <
681 1 5 9 7 773. 662. 350. <
682 3 -5 -9 7 764. 898. 539. <
682 2 9 5 7 764. 898. 539. <
682 1 5 9 -7 764. 898. 539. <
683 3 0 0 -8 143679. 126604. 1861. o
683 2 0 0 -8 143679. 126604. 1861. o
683 1 0 0 8 143679. 126604. 1861. o
684 3 -2 0 -8 138528. 123741. 1337. o
684 2 0 2 -8 138528. 123741. 1337. o
684 1 2 0 8 138528. 123741. 1337. o
685 3 -2 0 8 138240. 121056. 1385. o
685 2 0 2 8 138240. 121056. 1385. o
685 1 2 0 -8 138240. 121056. 1385. o
686 3 -4 0 -8 92835. 93335. 672. o
686 2 0 4 -8 92835. 93335. 672. o
686 1 4 0 8 92835. 93335. 672. o
687 3 -4 0 8 92902. 94252. 639. o
687 2 0 4 8 92902. 94252. 639. o
687 1 4 0 -8 92902. 94252. 639. o
688 3 -6 0 -8 12721. 12344. 438. o
688 2 0 6 -8 12721. 12344. 438. o
688 1 6 0 8 12721. 12344. 438. o
689 3 -6 0 8 12747. 12694. 407. o
689 2 0 6 8 12747. 12694. 407. o
689 1 6 0 -8 12747. 12694. 407. o
690 3 -8 0 -8 19337. 18828. 450. o
690 2 0 8 -8 19337. 18828. 450. o
690 1 8 0 8 19337. 18828. 450. o
691 3 -8 0 8 19319. 18128. 531. o
691 2 0 8 8 19319. 18128. 531. o
691 1 8 0 -8 19319. 18128. 531. o
692 3 -10 0 -8 349. 454. 454. <
692 2 0 10 -8 349. 454. 454. <
692 1 10 0 8 349. 454. 454. <
693 3 -10 0 8 361. -85. 510. <
693 2 0 10 8 361. -85. 510. <
693 1 10 0 -8 361. -85. 510. <
694 3 0 -2 -8 118309. 113816. 921. o
694 2 2 0 -8 118309. 113816. 921. o
694 1 0 2 8 118309. 113816. 921. o
695 3 -1 -2 -8 7903. 8459. 356. o
695 1 1 2 8 7903. 8459. 356. o
696 3 -1 -2 8 8028. 8535. 337. o
696 1 1 2 -8 8028. 8535. 337. o
697 3 -2 -2 -8 134340. 132086. 789. o
697 2 2 2 -8 134340. 132086. 789. o
697 1 2 2 8 134340. 132086. 789. o
698 3 -2 -2 8 134487. 132502. 777. o
698 2 2 2 8 134487. 132502. 777. o
698 1 2 2 -8 134487. 132502. 777. o
699 3 -3 -2 -8 6164. 7627. 313. o
699 1 3 2 8 6164. 7627. 313. o
700 3 -3 -2 8 6191. 7363. 305. o
700 1 3 2 -8 6191. 7363. 305. o
701 3 -4 -2 -8 34113. 34858. 329. o
701 2 2 4 -8 34113. 34858. 329. o
701 1 4 2 8 34113. 34858. 329. o
702 3 -4 -2 8 34113. 35151. 362. o
702 2 2 4 8 34113. 35151. 362. o
702 1 4 2 -8 34113. 35151. 362. o
703 3 -5 -2 -8 283. 558. 246. o
703 1 5 2 8 283. 558. 246. o
704 3 -5 -2 8 284. 690. 274. o
704 1 5 2 -8 284. 690. 274. o
705 3 -6 -2 -8 44661. 44338. 388. o
705 2 2 6 -8 44661. 44338. 388. o
705 1 6 2 8 44661. 44338. 388. o
706 3 -6 -2 8 44657. 44130. 394. o
706 2 2 6 8 44657. 44130. 394. o
706 1 6 2 -8 44657. 44130. 394. o
707 3 -7 -2 -8 760. 784. 265. o
707 1 7 2 8 760. 784. 265. o
708 3 -7 -2 8 760. 718. 274. o
708 1 7 2 -8 760. 718. 274. o
709 3 -8 -2 -8 1923. 1881. 303. o
709 2 2 8 -8 1923. 1881. 303. o
709 1 8 2 8 1923. 1881. 303. o
710 3 -8 -2 8 1942. 1938. 284. o
710 2 2 8 8 1942. 1938. 284. o
710 1 8 2 -8 1942. 1938. 284. o
711 3 -9 -2 -8 28. 132. 302. <
711 1 9 2 8 28. 132. 302. <
712 3 -9 -2 8 28. 397. 302. <
712 1 9 2 -8 28. 397. 302. <
713 3 -10 -2 -8 5966. 5406. 343. o
713 2 2 10 -8 5966. 5406. 343. o
713 1 10 2 8 5966. 5406. 343. o
714 3 -10 -2 8 5956. 5161. 372. o
714 2 2 10 8 5956. 5161. 372. o
714 1 10 2 -8 5956. 5161. 372. o
715 3 0 -4 -8 116714. 111425. 885. o
715 2 4 0 -8 116714. 111425. 885. o
715 1 0 4 8 116714. 111425. 885. o
716 3 0 -4 8 116837. 116387. 1409. o
716 2 4 0 8 116837. 116387. 1409. o
716 1 0 4 -8 116837. 116387. 1409. o
717 3 -1 -4 -8 12612. 14735. 316. o
717 1 1 4 8 12612. 14735. 316. o
718 3 -1 -4 8 12720. 15510. 489. o
718 1 1 4 -8 12720. 15510. 489. o
719 3 -2 -4 -8 27040. 28582. 325. o
719 2 4 2 -8 27040. 28582. 325. o
719 1 2 4 8 27040. 28582. 325. o
720 3 -2 -4 8 27065. 29064. 388. o
720 2 4 2 8 27065. 29064. 388. o
720 1 2 4 -8 27065. 29064. 388. o
721 3 -3 -4 -8 2788. 4045. 231. o
721 1 3 4 8 2788. 4045. 231. o
722 3 -3 -4 8 2814. 4253. 326. o
722 1 3 4 -8 2814. 4253. 326. o
723 3 -4 -4 -8 66964. 65689. 475. o
723 2 4 4 -8 66964. 65689. 475. o
723 1 4 4 8 66964. 65689. 475. o
724 3 -4 -4 8 66992. 66558. 480. o
724 2 4 4 8 66992. 66558. 480. o
724 1 4 4 -8 66992. 66558. 480. o
725 3 -5 -4 -8 4424. 4215. 303. o
725 1 5 4 8 4424. 4215. 303. o
726 3 -5 -4 8 4431. 4045. 285. o
726 1 5 4 -8 4431. 4045. 285. o
727 3 -6 -4 -8 4556. 4934. 282. o
727 2 4 6 -8 4556. 4934. 282. o
727 1 6 4 8 4556. 4934. 282. o
728 3 -6 -4 8 4575. 5151. 290. o
728 2 4 6 8 4575. 5151. 290. o
728 1 6 4 -8 4575. 5151. 290. o
729 3 -7 -4 -8 103. -76. 274. <
729 1 7 4 8 103. -76. 274. <
730 3 -7 -4 8 103. -142. 284. <
730 1 7 4 -8 103. -142. 284. <
731 3 -8 -4 -8 14467. 13676. 367. o
731 2 4 8 -8 14467. 13676. 367. o
731 1 8 4 8 14467. 13676. 367. o
732 3 -8 -4 8 14457. 14584. 358. o
732 2 4 8 8 14457. 14584. 358. o
732 1 8 4 -8 14457. 14584. 358. o
733 3 -9 -4 -8 479. 161. 321. <
733 1 9 4 8 479. 161. 321. <
734 3 -9 -4 8 479. 151. 340. <
734 1 9 4 -8 479. 151. 340. <
735 3 0 -6 -8 6483. 6030. 305. o
735 2 6 0 -8 6483. 6030. 305. o
735 1 0 6 8 6483. 6030. 305. o
736 3 0 -6 8 6562. 5888. 494. o
736 2 6 0 8 6562. 5888. 494. o
736 1 0 6 -8 6562. 5888. 494. o
737 3 -1 -6 -8 3537. 4300. 204. o
737 1 1 6 8 3537. 4300. 204. o
738 3 -1 -6 8 3551. 4367. 338. o
738 1 1 6 -8 3551. 4367. 338. o
739 3 -2 -6 -8 57442. 56076. 514. o
739 2 6 2 -8 57442. 56076. 514. o
739 1 2 6 8 57442. 56076. 514. o
740 3 -2 -6 8 57421. 55689. 620. o
740 2 6 2 8 57421. 55689. 620. o
740 1 2 6 -8 57421. 55689. 620. o
741 3 -3 -6 -8 4891. 5198. 244. o
741 1 3 6 8 4891. 5198. 244. o
742 3 -3 -6 8 4899. 5293. 301. o
742 1 3 6 -8 4899. 5293. 301. o
743 3 -4 -6 -8 3158. 3138. 246. o
743 2 6 4 -8 3158. 3138. 246. o
743 1 4 6 8 3158. 3138. 246. o
744 3 -4 -6 8 3186. 3308. 274. o
744 2 6 4 8 3186. 3308. 274. o
744 1 4 6 -8 3186. 3308. 274. o
745 3 -5 -6 -8 240. 151. 255. <
745 1 5 6 8 240. 151. 255. <
746 3 -5 -6 8 242. 123. 293. <
746 1 5 6 -8 242. 123. 293. <
747 3 -6 -6 -8 21525. 20954. 350. o
747 2 6 6 -8 21525. 20954. 350. o
747 1 6 6 8 21525. 20954. 350. o
748 3 -6 -6 8 21515. 21153. 365. o
748 2 6 6 8 21515. 21153. 365. o
748 1 6 6 -8 21515. 21153. 365. o
749 3 -7 -6 -8 1319. 992. 359. o
749 1 7 6 8 1319. 992. 359. o
750 3 -7 -6 8 1319. 1125. 350. o
750 1 7 6 -8 1319. 1125. 350. o
751 3 -8 -6 -8 472. 586. 350. <
751 2 6 8 -8 472. 586. 350. <
751 1 8 6 8 472. 586. 350. <
752 3 -8 -6 8 477. 860. 349. o
752 2 6 8 8 477. 860. 349. o
752 1 8 6 -8 477. 860. 349. o
753 3 0 -8 -8 27091. 27523. 447. o
753 2 8 0 -8 27091. 27523. 447. o
753 1 0 8 8 27091. 27523. 447. o
754 3 0 -8 8 27073. 27164. 698. o
754 2 8 0 8 27073. 27164. 698. o
754 1 0 8 -8 27073. 27164. 698. o
755 3 -1 -8 -8 1324. 1352. 246. o
755 1 1 8 8 1324. 1352. 246. o
756 3 -1 -8 8 1324. 1578. 378. o
756 1 1 8 -8 1324. 1578. 378. o
757 3 -2 -8 -8 594. 255. 246. <
757 2 8 2 -8 594. 255. 246. <
757 1 2 8 8 594. 255. 246. <
758 3 -2 -8 8 616. 302. 359. <
758 2 8 2 8 616. 302. 359. <
758 1 2 8 -8 616. 302. 359. <
759 3 -3 -8 -8 302. 463. 265. <
759 1 3 8 8 302. 463. 265. <
760 3 -3 -8 8 304. 255. 359. <
760 1 3 8 -8 304. 255. 359. <
761 3 -4 -8 -8 17598. 17410. 352. o
761 2 8 4 -8 17598. 17410. 352. o
761 1 4 8 8 17598. 17410. 352. o
762 3 -4 -8 8 17588. 17221. 523. o
762 2 8 4 8 17588. 17221. 523. o
762 1 4 8 -8 17588. 17221. 523. o
763 3 -5 -8 -8 1089. 1011. 293. o
763 1 5 8 8 1089. 1011. 293. o
764 3 -5 -8 8 1089. 822. 340. o
764 1 5 8 -8 1089. 822. 340. o
765 3 -6 -8 -8 298. 284. 321. <
765 2 8 6 -8 298. 284. 321. <
765 1 6 8 8 298. 284. 321. <
766 3 -6 -8 8 302. 340. 369. <
766 2 8 6 8 302. 340. 369. <
766 1 6 8 -8 302. 340. 369. <
767 3 0 -10 -8 118. 180. 397. <
767 2 10 0 -8 118. 180. 397. <
767 1 0 10 8 118. 180. 397. <
768 3 0 -10 8 127. -76. 614. <
768 2 10 0 8 127. -76. 614. <
768 1 0 10 -8 127. -76. 614. <
769 3 -1 -10 -8 123. 123. 293. <
769 1 1 10 8 123. 123. 293. <
770 3 -1 -10 8 124. 76. 454. <
770 1 1 10 -8 124. 76. 454. <
771 3 -2 -10 -8 8018. 7731. 333. o
771 2 10 2 -8 8018. 7731. 333. o
771 1 2 10 8 8018. 7731. 333. o
772 3 -2 -10 8 8007. 7920. 520. o
772 2 10 2 8 8007. 7920. 520. o
772 1 2 10 -8 8007. 7920. 520. o
773 3 -3 -10 -8 275. 643. 302. o
773 1 3 10 8 275. 643. 302. o
774 3 -3 -10 8 275. 331. 482. <
774 1 3 10 -8 275. 331. 482. <
775 3 0 -1 -9 165552. 165923. 1053. o
775 1 0 1 9 165552. 165923. 1053. o
776 3 -1 -1 -9 24954. 25794. 363. o
776 2 1 1 -9 24954. 25794. 363. o
776 1 1 1 9 24954. 25794. 363. o
777 3 -1 -1 9 24802. 25897. 358. o
777 2 1 1 9 24802. 25897. 358. o
777 1 1 1 -9 24802. 25897. 358. o
778 3 -2 -1 -9 11818. 14319. 323. o
778 1 2 1 9 11818. 14319. 323. o
779 3 -2 -1 9 11869. 13809. 269. o
779 1 2 1 -9 11869. 13809. 269. o
780 3 -3 -1 -9 7196. 6663. 278. o
780 2 1 3 -9 7196. 6663. 278. o
780 1 3 1 9 7196. 6663. 278. o
781 3 -3 -1 9 7157. 6588. 278. o
781 2 1 3 9 7157. 6588. 278. o
781 1 3 1 -9 7157. 6588. 278. o
782 3 -4 -1 -9 48696. 46965. 449. o
782 1 4 1 9 48696. 46965. 449. o
783 3 -4 -1 9 48673. 47334. 421. o
783 1 4 1 -9 48673. 47334. 421. o
784 3 -5 -1 -9 260. 142. 284. <
784 2 1 5 -9 260. 142. 284. <
784 1 5 1 9 260. 142. 284. <
785 3 -5 -1 9 257. 255. 274. <
785 2 1 5 9 257. 255. 274. <
785 1 5 1 -9 257. 255. 274. <
786 3 -6 -1 -9 7044. 7854. 287. o
786 1 6 1 9 7044. 7854. 287. o
787 3 -6 -1 9 7045. 8147. 275. o
787 1 6 1 -9 7045. 8147. 275. o
788 3 -7 -1 -9 133. 57. 284. <
788 2 1 7 -9 133. 57. 284. <
788 1 7 1 9 133. 57. 284. <
789 3 -7 -1 9 134. 359. 302. <
789 2 1 7 9 134. 359. 302. <
789 1 7 1 -9 134. 359. 302. <
790 3 -8 -1 -9 4388. 4452. 312. o
790 1 8 1 9 4388. 4452. 312. o
791 3 -8 -1 9 4388. 4026. 276. o
791 1 8 1 -9 4388. 4026. 276. o
792 3 -9 -1 -9 12. 38. 302. <
792 2 1 9 -9 12. 38. 302. <
792 1 9 1 9 12. 38. 302. <
793 3 -9 -1 9 12. 151. 312. <
793 2 1 9 9 12. 151. 312. <
793 1 9 1 -9 12. 151. 312. <
794 3 -10 -1 -9 938. 936. 340. o
794 1 10 1 9 938. 936. 340. o
795 3 -10 -1 9 938. 1484. 330. o
795 1 10 1 -9 938. 1484. 330. o
796 3 0 -3 -9 5140. 5520. 301. o
796 1 0 3 9 5140. 5520. 301. o
797 3 -1 -3 -9 2908. 2183. 295. o
797 2 3 1 -9 2908. 2183. 295. o
797 1 1 3 9 2908. 2183. 295. o
798 3 -1 -3 9 2917. 2316. 398. o
798 2 3 1 9 2917. 2316. 398. o
798 1 1 3 -9 2917. 2316. 398. o
799 3 -2 -3 -9 158361. 159572. 622. o
799 1 2 3 9 158361. 159572. 622. o
800 3 -2 -3 9 157888. 158901. 758. o
800 1 2 3 -9 157888. 158901. 758. o
801 3 -3 -3 -9 109. 189. 255. <
801 2 3 3 -9 109. 189. 255. <
801 1 3 3 9 109. 189. 255. <
802 3 -3 -3 9 106. 227. 302. <
802 2 3 3 9 106. 227. 302. <
802 1 3 3 -9 106. 227. 302. <
803 3 -4 -3 -9 855. 822. 255. o
803 1 4 3 9 855. 822. 255. o
804 3 -4 -3 9 862. 766. 284. o
804 1 4 3 -9 862. 766. 284. o
805 3 -5 -3 -9 722. 662. 246. o
805 2 3 5 -9 722. 662. 246. o
805 1 5 3 9 722. 662. 246. o
806 3 -5 -3 9 725. 539. 255. o
806 2 3 5 9 725. 539. 255. o
806 1 5 3 -9 725. 539. 255. o
807 3 -6 -3 -9 18609. 16956. 336. o
807 1 6 3 9 18609. 16956. 336. o
808 3 -6 -3 9 18604. 17996. 340. o
808 1 6 3 -9 18604. 17996. 340. o
809 3 -7 -3 -9 182. 624. 274. o
809 2 3 7 -9 182. 624. 274. o
809 1 7 3 9 182. 624. 274. o
810 3 -7 -3 9 181. 473. 274. <
810 2 3 7 9 181. 473. 274. <
810 1 7 3 -9 181. 473. 274. <
811 3 -8 -3 -9 1729. 2013. 311. o
811 1 8 3 9 1729. 2013. 311. o
812 3 -8 -3 9 1729. 1834. 321. o
812 1 8 3 -9 1729. 1834. 321. o
813 3 -9 -3 -9 156. 643. 340. <
813 2 3 9 -9 156. 643. 340. <
813 1 9 3 9 156. 643. 340. <
814 3 -9 -3 9 156. 208. 321. <
814 2 3 9 9 156. 208. 321. <
814 1 9 3 -9 156. 208. 321. <
815 3 0 -5 -9 117917. 119478. 571. o
815 1 0 5 9 117917. 119478. 571. o
816 3 0 -5 9 117810. 121652. 1237. o
816 1 0 5 -9 117810. 121652. 1237. o
817 3 -1 -5 -9 1007. 1040. 255. o
817 2 5 1 -9 1007. 1040. 255. o
817 1 1 5 9 1007. 1040. 255. o
818 3 -1 -5 9 998. 1077. 369. o
818 2 5 1 9 998. 1077. 369. o
818 1 1 5 -9 998. 1077. 369. o
819 3 -2 -5 -9 2958. 2287. 248. o
819 1 2 5 9 2958. 2287. 248. o
820 3 -2 -5 9 2955. 2316. 313. o
820 1 2 5 -9 2955. 2316. 313. o
821 3 -3 -5 -9 490. 217. 246. <
821 2 5 3 -9 490. 217. 246. <
821 1 3 5 9 490. 217. 246. <
822 3 -3 -5 9 498. 123. 312. <
822 2 5 3 9 498. 123. 312. <
822 1 3 5 -9 498. 123. 312. <
823 3 -4 -5 -9 38283. 38582. 331. o
823 1 4 5 9 38283. 38582. 331. o
824 3 -4 -5 9 38272. 38969. 388. o
824 1 4 5 -9 38272. 38969. 388. o
825 3 -5 -5 -9 574. 529. 265. <
825 2 5 5 -9 574. 529. 265. <
825 1 5 5 9 574. 529. 265. <
826 3 -5 -5 9 570. 482. 293. <
826 2 5 5 9 570. 482. 293. <
826 1 5 5 -9 570. 482. 293. <
827 3 -6 -5 -9 1090. 1248. 283. o
827 1 6 5 9 1090. 1248. 283. o
828 3 -6 -5 9 1090. 1456. 283. o
828 1 6 5 -9 1090. 1456. 283. o
829 3 -7 -5 -9 489. 643. 283. o
829 2 5 7 -9 489. 643. 283. o
829 1 7 5 9 489. 643. 283. o
830 3 -7 -5 9 491. 709. 302. o
830 2 5 7 9 491. 709. 302. o
830 1 7 5 -9 491. 709. 302. o
831 3 -8 -5 -9 3141. 2316. 333. o
831 1 8 5 9 3141. 2316. 333. o
832 3 -8 -5 9 3141. 2391. 323. o
832 1 8 5 -9 3141. 2391. 323. o
833 3 -9 -5 -9 75. 76. 369. <
833 2 5 9 -9 75. 76. 369. <
833 1 9 5 9 75. 76. 369. <
834 3 -9 -5 9 75. -104. 359. <
834 2 5 9 9 75. -104. 359. <
834 1 9 5 -9 75. -104. 359. <
835 3 0 -7 -9 512. 123. 274. <
835 1 0 7 9 512. 123. 274. <
836 3 0 -7 9 512. 217. 539. <
836 1 0 7 -9 512. 217. 539. <
837 3 -1 -7 -9 1005. 1304. 226. o
837 2 7 1 -9 1005. 1304. 226. o
837 1 1 7 9 1005. 1304. 226. o
838 3 -1 -7 9 1007. 794. 397. <
838 2 7 1 9 1007. 794. 397. <
838 1 1 7 -9 1007. 794. 397. <
839 3 -2 -7 -9 23023. 24064. 300. o
839 1 2 7 9 23023. 24064. 300. o
840 3 -2 -7 9 23030. 23790. 568. o
840 1 2 7 -9 23030. 23790. 568. o
841 3 -3 -7 -9 897. 974. 265. o
841 2 7 3 -9 897. 974. 265. o
841 1 3 7 9 897. 974. 265. o
842 3 -3 -7 9 894. 841. 406. o
842 2 7 3 9 894. 841. 406. o
842 1 3 7 -9 894. 841. 406. o
843 3 -4 -7 -9 482. 274. 265. <
843 1 4 7 9 482. 274. 265. <
844 3 -4 -7 9 481. 435. 331. <
844 1 4 7 -9 481. 435. 331. <
845 3 -5 -7 -9 426. 359. 265. <
845 2 7 5 -9 426. 359. 265. <
845 1 5 7 9 426. 359. 265. <
846 3 -5 -7 9 430. 265. 340. <
846 2 7 5 9 430. 265. 340. <
846 1 5 7 -9 430. 265. 340. <
847 3 -6 -7 -9 4547. 4168. 332. o
847 1 6 7 9 4547. 4168. 332. o
848 3 -6 -7 9 4548. 5019. 357. o
848 1 6 7 -9 4548. 5019. 357. o
849 3 -7 -7 -9 185. 170. 321. <
849 2 7 7 -9 185. 170. 321. <
849 1 7 7 9 185. 170. 321. <
850 3 -7 -7 9 184. 217. 340. <
850 2 7 7 9 184. 217. 340. <
850 1 7 7 -9 184. 217. 340. <
851 3 0 -9 -9 3888. 3705. 369. o
851 1 0 9 9 3888. 3705. 369. o
852 3 0 -9 9 3891. 3800. 643. o
852 1 0 9 -9 3891. 3800. 643. o
853 3 -1 -9 -9 258. 236. 255. <
853 2 9 1 -9 258. 236. 255. <
853 1 1 9 9 258. 236. 255. <
854 3 -1 -9 9 259. 312. 435. <
854 2 9 1 9 259. 312. 435. <
854 1 1 9 -9 259. 312. 435. <
855 3 -2 -9 -9 736. 652. 246. o
855 1 2 9 9 736. 652. 246. o
856 3 -2 -9 9 735. 766. 435. <
856 1 2 9 -9 735. 766. 435. <
857 3 -3 -9 -9 119. -76. 284. <
857 2 9 3 -9 119. -76. 284. <
857 1 3 9 9 119. -76. 284. <
858 3 -3 -9 9 121. 123. 454. <
858 2 9 3 9 121. 123. 454. <
858 1 3 9 -9 121. 123. 454. <
859 3 -4 -9 -9 2228. 2193. 340. o
859 1 4 9 9 2228. 2193. 340. o
860 3 -4 -9 9 2230. 2193. 463. o
860 1 4 9 -9 2230. 2193. 463. o
861 3 -5 -9 -9 120. 123. 350. <
861 2 9 5 -9 120. 123. 350. <
861 1 5 9 9 120. 123. 350. <
862 3 -5 -9 9 119. 416. 548. <
862 2 9 5 9 119. 416. 548. <
862 1 5 9 -9 119. 416. 548. <
863 3 0 0 -10 22306. 23525. 641. o
863 2 0 0 -10 22306. 23525. 641. o
863 1 0 0 10 22306. 23525. 641. o
864 3 -2 0 -10 13972. 14158. 376. o
864 2 0 2 -10 13972. 14158. 376. o
864 1 2 0 10 13972. 14158. 376. o
865 3 -2 0 10 14005. 14508. 373. o
865 2 0 2 10 14005. 14508. 373. o
865 1 2 0 -10 14005. 14508. 373. o
866 3 -4 0 -10 28697. 29697. 436. o
866 2 0 4 -10 28697. 29697. 436. o
866 1 4 0 10 28697. 29697. 436. o
867 3 -4 0 10 28658. 28771. 499. o
867 2 0 4 10 28658. 28771. 499. o
867 1 4 0 -10 28658. 28771. 499. o
868 3 -6 0 -10 289. -255. 406. <
868 2 0 6 -10 289. -255. 406. <
868 1 6 0 10 289. -255. 406. <
869 3 -6 0 10 274. 208. 416. <
869 2 0 6 10 274. 208. 416. <
869 1 6 0 -10 274. 208. 416. <
870 3 -8 0 -10 7926. 9404. 417. o
870 2 0 8 -10 7926. 9404. 417. o
870 1 8 0 10 7926. 9404. 417. o
871 3 -8 0 10 7934. 10198. 451. o
871 2 0 8 10 7934. 10198. 451. o
871 1 8 0 -10 7934. 10198. 451. o
872 3 -10 0 -10 208. 699. 435. <
872 2 0 10 -10 208. 699. 435. <
872 1 10 0 10 208. 699. 435. <
873 3 -10 0 10 202. 435. 482. <
873 2 0 10 10 202. 435. 482. <
873 1 10 0 -10 202. 435. 482. <
874 3 0 -2 -10 8936. 10189. 321. o
874 2 2 0 -10 8936. 10189. 321. o
874 1 0 2 10 8936. 10189. 321. o
875 3 -1 -2 -10 47421. 45954. 625. o
875 1 1 2 10 47421. 45954. 625. o
876 3 -1 -2 10 47564. 45320. 545. o
876 1 1 2 -10 47564. 45320. 545. o
877 3 -2 -2 -10 35051. 36039. 423. o
877 2 2 2 -10 35051. 36039. 423. o
877 1 2 2 10 35051. 36039. 423. o
878 3 -2 -2 10 35046. 36710. 386. o
878 2 2 2 10 35046. 36710. 386. o
878 1 2 2 -10 35046. 36710. 386. o
879 3 -3 -2 -10 25924. 26030. 405. o
879 1 3 2 10 25924. 26030. 405. o
880 3 -3 -2 10 25960. 26332. 361. o
880 1 3 2 -10 25960. 26332. 361. o
881 3 -4 -2 -10 303. 737. 245. o
881 2 2 4 -10 303. 737. 245. o
881 1 4 2 10 303. 737. 245. o
882 3 -4 -2 10 301. 737. 255. o
882 2 2 4 10 301. 737. 255. o
882 1 4 2 -10 301. 737. 255. o
883 3 -5 -2 -10 1940. 2127. 245. o
883 1 5 2 10 1940. 2127. 245. o
884 3 -5 -2 10 1942. 2268. 273. o
884 1 5 2 -10 1942. 2268. 273. o
885 3 -6 -2 -10 17387. 19168. 303. o
885 2 2 6 -10 17387. 19168. 303. o
885 1 6 2 10 17387. 19168. 303. o
886 3 -6 -2 10 17394. 19300. 301. o
886 2 2 6 10 17394. 19300. 301. o
886 1 6 2 -10 17394. 19300. 301. o
887 3 -7 -2 -10 1380. 1285. 265. o
887 1 7 2 10 1380. 1285. 265. o
888 3 -7 -2 10 1381. 1352. 293. o
888 1 7 2 -10 1381. 1352. 293. o
889 3 -8 -2 -10 289. 369. 293. <
889 2 2 8 -10 289. 369. 293. <
889 1 8 2 10 289. 369. 293. <
890 3 -8 -2 10 280. 444. 293. <
890 2 2 8 10 280. 444. 293. <
890 1 8 2 -10 280. 444. 293. <
891 3 -9 -2 -10 31. 76. 312. <
891 1 9 2 10 31. 76. 312. <
892 3 -9 -2 10 31. 95. 293. <
892 1 9 2 -10 31. 95. 293. <
893 3 -10 -2 -10 2201. 2618. 377. o
893 2 2 10 -10 2201. 2618. 377. o
893 1 10 2 10 2201. 2618. 377. o
894 3 -10 -2 10 2206. 2732. 349. o
894 2 2 10 10 2206. 2732. 349. o
894 1 10 2 -10 2206. 2732. 349. o
895 3 0 -4 -10 48200. 46029. 544. o
895 2 4 0 -10 48200. 46029. 544. o
895 1 0 4 10 48200. 46029. 544. o
896 3 -1 -4 -10 67360. 61360. 653. o
896 1 1 4 10 67360. 61360. 653. o
897 3 -1 -4 10 67311. 62645. 1114. o
897 1 1 4 -10 67311. 62645. 1114. o
898 3 -2 -4 -10 221. 85. 246. <
898 2 4 2 -10 221. 85. 246. <
898 1 2 4 10 221. 85. 246. <
899 3 -2 -4 10 237. 236. 350. <
899 2 4 2 10 237. 236. 350. <
899 1 2 4 -10 237. 236. 350. <
900 3 -3 -4 -10 19144. 19480. 306. o
900 1 3 4 10 19144. 19480. 306. o
901 3 -3 -4 10 19131. 20226. 382. o
901 1 3 4 -10 19131. 20226. 382. o
902 3 -4 -4 -10 26374. 27514. 305. o
902 2 4 4 -10 26374. 27514. 305. o
902 1 4 4 10 26374. 27514. 305. o
903 3 -4 -4 10 26400. 27863. 359. o
903 2 4 4 10 26400. 27863. 359. o
903 1 4 4 -10 26400. 27863. 359. o
904 3 -5 -4 -10 11423. 11049. 325. o
904 1 5 4 10 11423. 11049. 325. o
905 3 -5 -4 10 11418. 11644. 319. o
905 1 5 4 -10 11418. 11644. 319. o
906 3 -6 -4 -10 154. 170. 265. <
906 2 4 6 -10 154. 170. 265. <
906 1 6 4 10 154. 170. 265. <
907 3 -6 -4 10 150. 302. 284. <
907 2 4 6 10 150. 302. 284. <
907 1 6 4 -10 150. 302. 284. <
908 3 -7 -4 -10 60. -9. 274. <
908 1 7 4 10 60. -9. 274. <
909 3 -7 -4 10 60. 321. 302. <
909 1 7 4 -10 60. 321. 302. <
910 3 -8 -4 -10 4965. 5246. 311. o
910 2 4 8 -10 4965. 5246. 311. o
910 1 8 4 10 4965. 5246. 311. o
911 3 -8 -4 10 4970. 5416. 319. o
911 2 4 8 10 4970. 5416. 319. o
911 1 8 4 -10 4970. 5416. 319. o
912 3 -9 -4 -10 600. 331. 350. <
912 1 9 4 10 600. 331. 350. <
913 3 -9 -4 10 600. 331. 331. <
913 1 9 4 -10 600. 331. 331. <
914 3 0 -6 -10 3357. 2930. 313. o
914 2 6 0 -10 3357. 2930. 313. o
914 1 0 6 10 3357. 2930. 313. o
915 3 0 -6 10 3372. 2732. 596. o
915 2 6 0 10 3372. 2732. 596. o
915 1 0 6 -10 3372. 2732. 596. o
916 3 -1 -6 -10 17391. 16153. 267. o
916 1 1 6 10 17391. 16153. 267. o
917 3 -1 -6 10 17375. 15728. 487. o
917 1 1 6 -10 17375. 15728. 487. o
918 3 -2 -6 -10 29727. 31285. 279. o
918 2 6 2 -10 29727. 31285. 279. o
918 1 2 6 10 29727. 31285. 279. o
919 3 -2 -6 10 29744. 30094. 543. o
919 2 6 2 10 29744. 30094. 543. o
919 1 2 6 -10 29744. 30094. 543. o
920 3 -3 -6 -10 15076. 14470. 301. o
920 1 3 6 10 15076. 14470. 301. o
921 3 -3 -6 10 15067. 14537. 365. o
921 1 3 6 -10 15067. 14537. 365. o
922 3 -4 -6 -10 581. 681. 246. o
922 2 6 4 -10 581. 681. 246. o
922 1 4 6 10 581. 681. 246. o
923 3 -4 -6 10 584. 614. 302. o
923 2 6 4 10 584. 614. 302. o
923 1 4 6 -10 584. 614. 302. o
924 3 -5 -6 -10 318. 378. 265. <
924 1 5 6 10 318. 378. 265. <
925 3 -5 -6 10 318. 681. 321. o
925 1 5 6 -10 318. 681. 321. o
926 3 -6 -6 -10 7335. 7297. 293. o
926 2 6 6 -10 7335. 7297. 293. o
926 1 6 6 10 7335. 7297. 293. o
927 3 -6 -6 10 7339. 7174. 341. o
927 2 6 6 10 7339. 7174. 341. o
927 1 6 6 -10 7339. 7174. 341. o
928 3 -7 -6 -10 1980. 1890. 331. o
928 1 7 6 10 1980. 1890. 331. o
929 3 -7 -6 10 1980. 1853. 322. o
929 1 7 6 -10 1980. 1853. 322. o
930 3 -8 -6 -10 22. 539. 406. <
930 2 6 8 -10 22. 539. 406. <
930 1 8 6 10 22. 539. 406. <
931 3 -8 -6 10 20. 0. 359. <
931 2 6 8 10 20. 0. 359. <
931 1 8 6 -10 20. 0. 359. <
932 3 0 -8 -10 14913. 14981. 387. o
932 2 8 0 -10 14913. 14981. 387. o
932 1 0 8 10 14913. 14981. 387. o
933 3 0 -8 10 14925. 14801. 766. o
933 2 8 0 10 14925. 14801. 766. o
933 1 0 8 -10 14925. 14801. 766. o
934 3 -1 -8 -10 2481. 2410. 255. o
934 1 1 8 10 2481. 2410. 255. o
935 3 -1 -8 10 2482. 2136. 464. o
935 1 1 8 -10 2482. 2136. 464. o
936 3 -2 -8 -10 1191. 1276. 236. o
936 2 8 2 -10 1191. 1276. 236. o
936 1 2 8 10 1191. 1276. 236. o
937 3 -2 -8 10 1194. 1304. 444. o
937 2 8 2 10 1194. 1304. 444. o
937 1 2 8 -10 1194. 1304. 444. o
938 3 -3 -8 -10 124. 463. 274. <
938 1 3 8 10 124. 463. 274. <
939 3 -3 -8 10 124. 189. 388. <
939 1 3 8 -10 124. 189. 388. <
940 3 -4 -8 -10 6785. 7013. 311. o
940 2 8 4 -10 6785. 7013. 311. o
940 1 4 8 10 6785. 7013. 311. o
941 3 -4 -8 10 6789. 7363. 518. o
941 2 8 4 10 6789. 7363. 518. o
941 1 4 8 -10 6789. 7363. 518. o
942 3 -5 -8 -10 1638. 1550. 312. o
942 1 5 8 10 1638. 1550. 312. o
943 3 -5 -8 10 1639. 1843. 387. o
943 1 5 8 -10 1639. 1843. 387. o
944 3 -6 -8 -10 27. 142. 340. <
944 2 8 6 -10 27. 142. 340. <
944 1 6 8 10 27. 142. 340. <
945 3 -6 -8 10 27. 76. 388. <
945 2 8 6 10 27. 76. 388. <
945 1 6 8 -10 27. 76. 388. <
946 3 0 -10 -10 405. 529. 416. <
946 2 10 0 -10 405. 529. 416. <
946 1 0 10 10 405. 529. 416. <
947 3 0 -10 10 403. 350. 898. <
947 2 10 0 10 403. 350. 898. <
947 1 0 10 -10 403. 350. 898. <
948 3 -1 -10 -10 24. 66. 293. <
948 1 1 10 10 24. 66. 293. <
949 3 -1 -10 10 24. 113. 624. <
949 1 1 10 -10 24. 113. 624. <
950 3 -2 -10 -10 3128. 3336. 311. o
950 2 10 2 -10 3128. 3336. 311. o
950 1 2 10 10 3128. 3336. 311. o
951 3 -2 -10 10 3132. 2939. 577. o
951 2 10 2 10 3132. 2939. 577. o
951 1 2 10 -10 3132. 2939. 577. o
952 3 0 -1 -11 59809. 57239. 575. o
952 1 0 1 11 59809. 57239. 575. o
953 3 -1 -1 -11 122034. 120328. 715. o
953 2 1 1 -11 122034. 120328. 715. o
953 1 1 1 11 122034. 120328. 715. o
954 3 -1 -1 11 121876. 119393. 733. o
954 2 1 1 11 121876. 119393. 733. o
954 1 1 1 -11 121876. 119393. 733. o
955 3 -2 -1 -11 19146. 16956. 378. o
955 1 2 1 11 19146. 16956. 378. o
956 3 -2 -1 11 19170. 16909. 319. o
956 1 2 1 -11 19170. 16909. 319. o
957 3 -3 -1 -11 88734. 90972. 439. o
957 2 1 3 -11 88734. 90972. 439. o
957 1 3 1 11 88734. 90972. 439. o
958 3 -3 -1 11 88657. 89658. 440. o
958 2 1 3 11 88657. 89658. 440. o
958 1 3 1 -11 88657. 89658. 440. o
959 3 -4 -1 -11 23288. 24054. 326. o
959 1 4 1 11 23288. 24054. 326. o
960 3 -4 -1 11 23288. 24215. 312. o
960 1 4 1 -11 23288. 24215. 312. o
961 3 -5 -1 -11 33338. 35368. 302. o
961 2 1 5 -11 33338. 35368. 302. o
961 1 5 1 11 33338. 35368. 302. o
962 3 -5 -1 11 33314. 36247. 272. o
962 2 1 5 11 33314. 36247. 272. o
962 1 5 1 -11 33314. 36247. 272. o
963 3 -6 -1 -11 5192. 5227. 283. o
963 1 6 1 11 5192. 5227. 283. o
964 3 -6 -1 11 5191. 5397. 301. o
964 1 6 1 -11 5191. 5397. 301. o
965 3 -7 -1 -11 17635. 18138. 333. o
965 2 1 7 -11 17635. 18138. 333. o
965 1 7 1 11 17635. 18138. 333. o
966 3 -7 -1 11 17626. 18034. 334. o
966 2 1 7 11 17626. 18034. 334. o
966 1 7 1 -11 17626. 18034. 334. o
967 3 -8 -1 -11 2561. 2628. 293. o
967 1 8 1 11 2561. 2628. 293. o
968 3 -8 -1 11 2561. 2618. 321. o
968 1 8 1 -11 2561. 2618. 321. o
969 3 -9 -1 -11 3966. 4102. 302. o
969 2 1 9 -11 3966. 4102. 302. o
969 1 9 1 11 3966. 4102. 302. o
970 3 -9 -1 11 3965. 3554. 323. o
970 2 1 9 11 3965. 3554. 323. o
970 1 9 1 -11 3965. 3554. 323. o
971 3 -10 -1 -11 561. 964. 340. o
971 1 10 1 11 561. 964. 340. o
972 3 -10 -1 11 561. 662. 321. o
972 1 10 1 -11 561. 662. 321. o
973 3 0 -3 -11 2177. 1522. 275. o
973 1 0 3 11 2177. 1522. 275. o
974 3 -1 -3 -11 80178. 82664. 628. o
974 2 3 1 -11 80178. 82664. 628. o
974 1 1 3 11 80178. 82664. 628. o
975 3 -1 -3 11 80162. 82995. 847. o
975 2 3 1 11 80162. 82995. 847. o
975 1 1 3 -11 80162. 82995. 847. o
976 3 -2 -3 -11 56298. 60717. 334. o
976 1 2 3 11 56298. 60717. 334. o
977 3 -2 -3 11 56414. 60585. 372. o
977 1 2 3 -11 56414. 60585. 372. o
978 3 -3 -3 -11 37273. 40254. 308. o
978 2 3 3 -11 37273. 40254. 308. o
978 1 3 3 11 37273. 40254. 308. o
979 3 -3 -3 11 37292. 40869. 349. o
979 2 3 3 11 37292. 40869. 349. o
979 1 3 3 -11 37292. 40869. 349. o
980 3 -4 -3 -11 3264. 2779. 294. o
980 1 4 3 11 3264. 2779. 294. o
981 3 -4 -3 11 3253. 2930. 303. o
981 1 4 3 -11 3253. 2930. 303. o
982 3 -5 -3 -11 38466. 40377. 331. o
982 2 3 5 -11 38466. 40377. 331. o
982 1 5 3 11 38466. 40377. 331. o
983 3 -5 -3 11 38461. 42258. 259. o
983 2 3 5 11 38461. 42258. 259. o
983 1 5 3 -11 38461. 42258. 259. o
984 3 -6 -3 -11 9349. 8988. 296. o
984 1 6 3 11 9349. 8988. 296. o
985 3 -6 -3 11 9355. 9329. 303. o
985 1 6 3 -11 9355. 9329. 303. o
986 3 -7 -3 -11 5419. 5387. 293. o
986 2 3 7 -11 5419. 5387. 293. o
986 1 7 3 11 5419. 5387. 293. o
987 3 -7 -3 11 5420. 5331. 293. o
987 2 3 7 11 5420. 5331. 293. o
987 1 7 3 -11 5420. 5331. 293. o
988 3 -8 -3 -11 1263. 1257. 293. o
988 1 8 3 11 1263. 1257. 293. o
989 3 -8 -3 11 1263. 1172. 321. o
989 1 8 3 -11 1263. 1172. 321. o
990 3 -9 -3 -11 6531. 6361. 360. o
990 2 3 9 -11 6531. 6361. 360. o
990 1 9 3 11 6531. 6361. 360. o
991 3 -9 -3 11 6531. 6238. 370. o
991 2 3 9 11 6531. 6238. 370. o
991 1 9 3 -11 6531. 6238. 370. o
992 3 0 -5 -11 40258. 45472. 290. o
992 1 0 5 11 40258. 45472. 290. o
993 3 -1 -5 -11 27720. 28024. 305. o
993 2 5 1 -11 27720. 28024. 305. o
993 1 1 5 11 27720. 28024. 305. o
994 3 -1 -5 11 27835. 29508. 758. o
994 2 5 1 11 27835. 29508. 758. o
994 1 1 5 -11 27835. 29508. 758. o
995 3 -2 -5 -11 885. 378. 237. <
995 1 2 5 11 885. 378. 237. <
996 3 -2 -5 11 875. 350. 369. <
996 1 2 5 -11 875. 350. 369. <
997 3 -3 -5 -11 35703. 37428. 308. o
997 2 5 3 -11 35703. 37428. 308. o
997 1 3 5 11 35703. 37428. 308. o
998 3 -3 -5 11 35761. 38147. 409. o
998 2 5 3 11 35761. 38147. 409. o
998 1 3 5 -11 35761. 38147. 409. o
999 3 -4 -5 -11 16497. 17448. 278. o
999 1 4 5 11 16497. 17448. 278. o
1000 3 -4 -5 11 16512. 17486. 327. o
1000 1 4 5 -11 16512. 17486. 327. o
1001 3 -5 -5 -11 5031. 5699. 280. o
1001 2 5 5 -11 5031. 5699. 280. o
1001 1 5 5 11 5031. 5699. 280. o
1002 3 -5 -5 11 5052. 5302. 311. o
1002 2 5 5 11 5052. 5302. 311. o
1002 1 5 5 -11 5052. 5302. 311. o
1003 3 -6 -5 -11 1422. 1125. 303. o
1003 1 6 5 11 1422. 1125. 303. o
1004 3 -6 -5 11 1420. 1144. 284. o
1004 1 6 5 -11 1420. 1144. 284. o
1005 3 -7 -5 -11 12844. 13138. 375. o
1005 2 5 7 -11 12844. 13138. 375. o
1005 1 7 5 11 12844. 13138. 375. o
1006 3 -7 -5 11 12845. 13327. 335. o
1006 2 5 7 11 12845. 13327. 335. o
1006 1 7 5 -11 12845. 13327. 335. o
1007 3 -8 -5 -11 1892. 1730. 312. o
1007 1 8 5 11 1892. 1730. 312. o
1008 3 -8 -5 11 1893. 1947. 321. o
1008 1 8 5 -11 1893. 1947. 321. o
1009 3 0 -7 -11 988. 406. 312. <
1009 1 0 7 11 988. 406. 312. <
1010 3 0 -7 11 987. 284. 747. <
1010 1 0 7 -11 987. 284. 747. <
1011 3 -1 -7 -11 14443. 13695. 275. o
1011 2 7 1 -11 14443. 13695. 275. o
1011 1 1 7 11 14443. 13695. 275. o
1012 3 -1 -7 11 14490. 14348. 577. o
1012 2 7 1 11 14490. 14348. 577. o
1012 1 1 7 -11 14490. 14348. 577. o
1013 3 -2 -7 -11 10300. 10926. 316. o
1013 1 2 7 11 10300. 10926. 316. o
1014 3 -2 -7 11 10303. 11427. 523. o
1014 1 2 7 -11 10303. 11427. 523. o
1015 3 -3 -7 -11 4165. 4149. 284. o
1015 2 7 3 -11 4165. 4149. 284. o
1015 1 3 7 11 4165. 4149. 284. o
1016 3 -3 -7 11 4195. 4338. 520. o
1016 2 7 3 11 4195. 4338. 520. o
1016 1 3 7 -11 4195. 4338. 520. o
1017 3 -4 -7 -11 1073. 822. 255. o
1017 1 4 7 11 1073. 822. 255. o
1018 3 -4 -7 11 1072. 907. 359. o
1018 1 4 7 -11 1072. 907. 359. o
1019 3 -5 -7 -11 12354. 12476. 311. o
1019 2 7 5 -11 12354. 12476. 311. o
1019 1 5 7 11 12354. 12476. 311. o
1020 3 -5 -7 11 12361. 12561. 376. o
1020 2 7 5 11 12361. 12561. 376. o
1020 1 5 7 -11 12361. 12561. 376. o
1021 3 -6 -7 -11 2702. 2542. 331. o
1021 1 6 7 11 2702. 2542. 331. o
1022 3 -6 -7 11 2703. 2854. 349. o
1022 1 6 7 -11 2703. 2854. 349. o
1023 3 -7 -7 -11 345. 633. 350. <
1023 2 7 7 -11 345. 633. 350. <
1023 1 7 7 11 345. 633. 350. <
1024 3 -7 -7 11 350. 567. 359. <
1024 2 7 7 11 350. 567. 359. <
1024 1 7 7 -11 350. 567. 359. <
1025 3 0 -9 -11 2428. 2505. 368. o
1025 1 0 9 11 2428. 2505. 368. o
1026 3 0 -9 11 2429. 2835. 926. o
1026 1 0 9 -11 2429. 2835. 926. o
1027 3 -1 -9 -11 3031. 2637. 247. o
1027 2 9 1 -11 3031. 2637. 247. o
1027 1 1 9 11 3031. 2637. 247. o
1028 3 -1 -9 11 3041. 2741. 634. o
1028 2 9 1 11 3041. 2741. 634. o
1028 1 1 9 -11 3041. 2741. 634. o
1029 3 -2 -9 -11 841. 756. 265. o
1029 1 2 9 11 841. 756. 265. o
1030 3 -2 -9 11 842. 454. 558. <
1030 1 2 9 -11 842. 454. 558. <
1031 3 -3 -9 -11 5958. 5709. 294. o
1031 2 9 3 -11 5958. 5709. 294. o
1031 1 3 9 11 5958. 5709. 294. o
1032 3 -3 -9 11 5961. 5482. 540. o
1032 2 9 3 11 5961. 5482. 540. o
1032 1 3 9 -11 5961. 5482. 540. o
1033 3 -4 -9 -11 1493. 1607. 331. o
1033 1 4 9 11 1493. 1607. 331. o
1034 3 -4 -9 11 1493. 1607. 482. o
1034 1 4 9 -11 1493. 1607. 482. o
1035 3 -5 -9 -11 380. 454. 359. <
1035 2 9 5 -11 380. 454. 359. <
1035 1 5 9 11 380. 454. 359. <
1036 3 -5 -9 11 385. 529. 558. <
1036 2 9 5 11 385. 529. 558. <
1036 1 5 9 -11 385. 529. 558. <
1037 3 -2 0 -12 35723. 36786. 470. o
1037 2 0 2 -12 35723. 36786. 470. o
1037 1 2 0 12 35723. 36786. 470. o
1038 3 -2 0 12 35639. 36058. 454. o
1038 2 0 2 12 35639. 36058. 454. o
1038 1 2 0 -12 35639. 36058. 454. o
1039 3 -4 0 -12 460228. 455124. 1716. o
1039 2 0 4 -12 460228. 455124. 1716. o
1039 1 4 0 12 460228. 455124. 1716. o
1040 3 -4 0 12 460260. 449472. 2064. o
1040 2 0 4 12 460260. 449472. 2064. o
1040 1 4 0 -12 460260. 449472. 2064. o
1041 3 -6 0 -12 1169. 832. 359. o
1041 2 0 6 -12 1169. 832. 359. o
1041 1 6 0 12 1169. 832. 359. o
1042 3 -6 0 12 1165. 681. 331. o
1042 2 0 6 12 1165. 681. 331. o
1042 1 6 0 -12 1165. 681. 331. o
1043 3 -8 0 -12 49138. 44744. 631. o
1043 2 0 8 -12 49138. 44744. 631. o
1043 1 8 0 12 49138. 44744. 631. o
1044 3 -8 0 12 49125. 46653. 603. o
1044 2 0 8 12 49125. 46653. 603. o
1044 1 8 0 -12 49125. 46653. 603. o
1045 3 -10 0 -12 161. 227. 510. <
1045 2 0 10 -12 161. 227. 510. <
1045 1 10 0 12 161. 227. 510. <
1046 3 -10 0 12 165. -444. 444. <
1046 2 0 10 12 165. -444. 444. <
1046 1 10 0 -12 165. -444. 444. <
1047 3 0 -2 -12 22951. 25189. 430. o
1047 2 2 0 -12 22951. 25189. 430. o
1047 1 0 2 12 22951. 25189. 430. o
1048 3 -1 -2 -12 6328. 7779. 322. o
1048 1 1 2 12 6328. 7779. 322. o
1049 3 -1 -2 12 6307. 7684. 284. o
1049 1 1 2 -12 6307. 7684. 284. o
1050 3 -2 -2 -12 713211. 679127. 3809. o
1050 2 2 2 -12 713211. 679127. 3809. o
1050 1 2 2 12 713211. 679127. 3809. o
1051 3 -2 -2 12 712975. 670809. 4130. o
1051 2 2 2 12 712975. 670809. 4130. o
1051 1 2 2 -12 712975. 670809. 4130. o
1052 3 -3 -2 -12 1158. 1314. 293. o
1052 1 3 2 12 1158. 1314. 293. o
1053 3 -3 -2 12 1154. 1408. 255. o
1053 1 3 2 -12 1154. 1408. 255. o
1054 3 -4 -2 -12 2911. 2486. 294. o
1054 2 2 4 -12 2911. 2486. 294. o
1054 1 4 2 12 2911. 2486. 294. o
1055 3 -4 -2 12 2903. 2590. 256. o
1055 2 2 4 12 2903. 2590. 256. o
1055 1 4 2 -12 2903. 2590. 256. o
1056 3 -5 -2 -12 178. 331. 255. <
1056 1 5 2 12 178. 331. 255. <
1057 3 -5 -2 12 178. 378. 265. <
1057 1 5 2 -12 178. 378. 265. <
1058 3 -6 -2 -12 134092. 135583. 439. o
1058 2 2 6 -12 134092. 135583. 439. o
1058 1 6 2 12 134092. 135583. 439. o
1059 3 -6 -2 12 134066. 136226. 394. o
1059 2 2 6 12 134066. 136226. 394. o
1059 1 6 2 -12 134066. 136226. 394. o
1060 3 -7 -2 -12 21. 236. 265. <
1060 1 7 2 12 21. 236. 265. <
1061 3 -7 -2 12 21. 265. 284. <
1061 1 7 2 -12 21. 265. 284. <
1062 3 -8 -2 -12 170. -19. 284. <
1062 2 2 8 -12 170. -19. 284. <
1062 1 8 2 12 170. -19. 284. <
1063 3 -8 -2 12 175. 9. 293. <
1063 2 2 8 12 175. 9. 293. <
1063 1 8 2 -12 175. 9. 293. <
1064 3 -9 -2 -12 0. 397. 331. <
1064 1 9 2 12 0. 397. 331. <
1065 3 -9 -2 12 0. 76. 331. <
1065 1 9 2 -12 0. 76. 331. <
1066 3 0 -4 -12 357830. 350976. 1528. o
1066 2 4 0 -12 357830. 350976. 1528. o
1066 1 0 4 12 357830. 350976. 1528. o
1067 3 -1 -4 -12 4740. 5794. 230. o
1067 1 1 4 12 4740. 5794. 230. o
1068 3 -1 -4 12 4718. 5529. 584. o
1068 1 1 4 -12 4718. 5529. 584. o
1069 3 -2 -4 -12 590. 142. 265. <
1069 2 4 2 -12 590. 142. 265. <
1069 1 2 4 12 590. 142. 265. <
1070 3 -2 -4 12 676. 142. 331. <
1070 2 4 2 12 676. 142. 331. <
1070 1 2 4 -12 676. 142. 331. <
1071 3 -3 -4 -12 1907. 2174. 255. o
1071 1 3 4 12 1907. 2174. 255. o
1072 3 -3 -4 12 1902. 2391. 339. o
1072 1 3 4 -12 1902. 2391. 339. o
1073 3 -4 -4 -12 174478. 176613. 421. o
1073 2 4 4 -12 174478. 176613. 421. o
1073 1 4 4 12 174478. 176613. 421. o
1074 3 -4 -4 12 174406. 178494. 300. o
1074 2 4 4 12 174406. 178494. 300. o
1074 1 4 4 -12 174406. 178494. 300. o
1075 3 -5 -4 -12 12. 170. 255. <
1075 1 5 4 12 12. 170. 255. <
1076 3 -5 -4 12 13. 151. 293. <
1076 1 5 4 -12 13. 151. 293. <
1077 3 -6 -4 -12 183. 113. 293. <
1077 2 4 6 -12 183. 113. 293. <
1077 1 6 4 12 183. 113. 293. <
1078 3 -6 -4 12 197. 284. 284. <
1078 2 4 6 12 197. 284. 284. <
1078 1 6 4 -12 197. 284. 284. <
1079 3 -7 -4 -12 14. 274. 284. <
1079 1 7 4 12 14. 274. 284. <
1080 3 -7 -4 12 14. 66. 293. <
1080 1 7 4 -12 14. 66. 293. <
1081 3 -8 -4 -12 29741. 28903. 395. o
1081 2 4 8 -12 29741. 28903. 395. o
1081 1 8 4 12 29741. 28903. 395. o
1082 3 -8 -4 12 29734. 28827. 396. o
1082 2 4 8 12 29734. 28827. 396. o
1082 1 8 4 -12 29734. 28827. 396. o
1083 3 -9 -4 -12 23. 227. 331. <
1083 1 9 4 12 23. 227. 331. <
1084 3 -9 -4 12 23. 529. 340. <
1084 1 9 4 -12 23. 529. 340. <
1085 3 0 -6 -12 5855. 5076. 306. o
1085 2 6 0 -12 5855. 5076. 306. o
1085 1 0 6 12 5855. 5076. 306. o
1086 3 -1 -6 -12 861. 1181. 198. o
1086 1 1 6 12 861. 1181. 198. o
1087 3 -1 -6 12 859. 1077. 643. <
1087 1 1 6 -12 859. 1077. 643. <
1088 3 -2 -6 -12 89392. 90367. 431. o
1088 2 6 2 -12 89392. 90367. 431. o
1088 1 2 6 12 89392. 90367. 431. o
1089 3 -2 -6 12 89393. 92976. 889. o
1089 2 6 2 12 89393. 92976. 889. o
1089 1 2 6 -12 89393. 92976. 889. o
1090 3 -3 -6 -12 56. 142. 246. <
1090 1 3 6 12 56. 142. 246. <
1091 3 -3 -6 12 57. 236. 378. <
1091 1 3 6 -12 57. 236. 378. <
1092 3 -4 -6 -12 1739. 1626. 265. o
1092 2 6 4 -12 1739. 1626. 265. o
1092 1 4 6 12 1739. 1626. 265. o
1093 3 -4 -6 12 1777. 1522. 359. o
1093 2 6 4 12 1777. 1522. 359. o
1093 1 4 6 -12 1777. 1522. 359. o
1094 3 -5 -6 -12 81. 369. 283. <
1094 1 5 6 12 81. 369. 283. <
1095 3 -5 -6 12 82. 189. 321. <
1095 1 5 6 -12 82. 189. 321. <
1096 3 -6 -6 -12 37427. 37617. 383. o
1096 2 6 6 -12 37427. 37617. 383. o
1096 1 6 6 12 37427. 37617. 383. o
1097 3 -6 -6 12 37425. 38553. 418. o
1097 2 6 6 12 37425. 38553. 418. o
1097 1 6 6 -12 37425. 38553. 418. o
1098 3 -7 -6 -12 76. 350. 293. <
1098 1 7 6 12 76. 350. 293. <
1099 3 -7 -6 12 76. 302. 321. <
1099 1 7 6 -12 76. 302. 321. <
1100 3 -8 -6 -12 84. 529. 378. <
1100 2 6 8 -12 84. 529. 378. <
1100 1 8 6 12 84. 529. 378. <
1101 3 -8 -6 12 87. 350. 350. <
1101 2 6 8 12 87. 350. 350. <
1101 1 8 6 -12 87. 350. 350. <
1102 3 0 -8 -12 27158. 27079. 436. o
1102 2 8 0 -12 27158. 27079. 436. o
1102 1 0 8 12 27158. 27079. 436. o
1103 3 0 -8 12 27166. 28081. 1498. o
1103 2 8 0 12 27166. 28081. 1498. o
1103 1 0 8 -12 27166. 28081. 1498. o
1104 3 -1 -8 -12 116. 246. 227. <
1104 1 1 8 12 116. 246. 227. <
1105 3 -1 -8 12 117. 246. 671. <
1105 1 1 8 -12 117. 246. 671. <
1106 3 -2 -8 -12 2250. 2079. 237. o
1106 2 8 2 -12 2250. 2079. 237. o
1106 1 2 8 12 2250. 2079. 237. o
1107 3 -2 -8 12 2285. 2231. 567. o
1107 2 8 2 12 2285. 2231. 567. o
1107 1 2 8 -12 2285. 2231. 567. o
1108 3 -3 -8 -12 52. 170. 284. <
1108 1 3 8 12 52. 170. 284. <
1109 3 -3 -8 12 52. 19. 473. <
1109 1 3 8 -12 52. 19. 473. <
1110 3 -4 -8 -12 22850. 22703. 371. o
1110 2 8 4 -12 22850. 22703. 371. o
1110 1 4 8 12 22850. 22703. 371. o
1111 3 -4 -8 12 22851. 23534. 627. o
1111 2 8 4 12 22851. 23534. 627. o
1111 1 4 8 -12 22851. 23534. 627. o
1112 3 -5 -8 -12 95. 236. 331. <
1112 1 5 8 12 95. 236. 331. <
1113 3 -5 -8 12 96. 198. 425. <
1113 1 5 8 -12 96. 198. 425. <
1114 3 -6 -8 -12 253. 350. 321. <
1114 2 8 6 -12 253. 350. 321. <
1114 1 6 8 12 253. 350. 321. <
1115 3 -6 -8 12 259. 444. 435. <
1115 2 8 6 12 259. 444. 435. <
1115 1 6 8 -12 259. 444. 435. <
1116 3 0 -10 -12 262. 359. 406. <
1116 2 10 0 -12 262. 359. 406. <
1116 1 0 10 12 262. 359. 406. <
1117 3 -1 -10 -12 87. 76. 293. <
1117 1 1 10 12 87. 76. 293. <
1118 3 -2 -10 -12 9049. 9149. 330. o
1118 2 10 2 -12 9049. 9149. 330. o
1118 1 2 10 12 9049. 9149. 330. o
1119 3 -2 -10 12 9045. 8261. 985. o
1119 2 10 2 12 9045. 8261. 985. o
1119 1 2 10 -12 9045. 8261. 985. o
1120 3 0 -1 -13 12073. 12287. 272. o
1120 1 0 1 13 12073. 12287. 272. o
1121 3 -1 -1 -13 415211. 365815. 3325. o
1121 2 1 1 -13 415211. 365815. 3325. o
1121 1 1 1 13 415211. 365815. 3325. o
1122 3 -1 -1 13 414898. 363074. 3385. o
1122 2 1 1 13 414898. 363074. 3385. o
1122 1 1 1 -13 414898. 363074. 3385. o
1123 3 -2 -1 -13 710. 491. 227. o
1123 1 2 1 13 710. 491. 227. o
1124 3 -2 -1 13 717. 208. 199. <
1124 1 2 1 -13 717. 208. 199. <
1125 3 -3 -1 -13 233439. 236678. 504. o
1125 2 1 3 -13 233439. 236678. 504. o
1125 1 3 1 13 233439. 236678. 504. o
1126 3 -3 -1 13 233296. 234183. 605. o
1126 2 1 3 13 233296. 234183. 605. o
1126 1 3 1 -13 233296. 234183. 605. o
1127 3 -4 -1 -13 3786. 4404. 262. o
1127 1 4 1 13 3786. 4404. 262. o
1128 3 -4 -1 13 3792. 4518. 242. o
1128 1 4 1 -13 3792. 4518. 242. o
1129 3 -5 -1 -13 65152. 66710. 355. o
1129 2 1 5 -13 65152. 66710. 355. o
1129 1 5 1 13 65152. 66710. 355. o
1130 3 -5 -1 13 65093. 66851. 333. o
1130 2 1 5 13 65093. 66851. 333. o
1130 1 5 1 -13 65093. 66851. 333. o
1131 3 -6 -1 -13 881. 747. 274. o
1131 1 6 1 13 881. 747. 274. o
1132 3 -6 -1 13 881. 1115. 283. o
1132 1 6 1 -13 881. 1115. 283. o
1133 3 -7 -1 -13 25524. 24120. 375. o
1133 2 1 7 -13 25524. 24120. 375. o
1133 1 7 1 13 25524. 24120. 375. o
1134 3 -7 -1 13 25518. 25018. 378. o
1134 2 1 7 13 25518. 25018. 378. o
1134 1 7 1 -13 25518. 25018. 378. o
1135 3 -8 -1 -13 449. 321. 293. <
1135 1 8 1 13 449. 321. 293. <
1136 3 -8 -1 13 450. 567. 302. <
1136 1 8 1 -13 450. 567. 302. <
1137 3 -9 -1 -13 4753. 4017. 333. o
1137 2 1 9 -13 4753. 4017. 333. o
1137 1 9 1 13 4753. 4017. 333. o
1138 3 -9 -1 13 4748. 3875. 334. o
1138 2 1 9 13 4748. 3875. 334. o
1138 1 9 1 -13 4748. 3875. 334. o
1139 3 -10 -1 -13 163. 425. 350. <
1139 1 10 1 13 163. 425. 350. <
1140 3 -10 -1 13 163. 274. 350. <
1140 1 10 1 -13 163. 274. 350. <
1141 3 0 -3 -13 4145. 3270. 277. o
1141 1 0 3 13 4145. 3270. 277. o
1142 3 -1 -3 -13 188830. 184562. 1251. o
1142 2 3 1 -13 188830. 184562. 1251. o
1142 1 1 3 13 188830. 184562. 1251. o
1143 3 -1 -3 13 189051. 182189. 1486. o
1143 2 3 1 13 189051. 182189. 1486. o
1143 1 1 3 -13 189051. 182189. 1486. o
1144 3 -2 -3 -13 16303. 18771. 335. o
1144 1 2 3 13 16303. 18771. 335. o
1145 3 -2 -3 13 16442. 18563. 299. o
1145 1 2 3 -13 16442. 18563. 299. o
1146 3 -3 -3 -13 78539. 78581. 509. o
1146 2 3 3 -13 78539. 78581. 509. o
1146 1 3 3 13 78539. 78581. 509. o
1147 3 -3 -3 13 78518. 78619. 497. o
1147 2 3 3 13 78518. 78619. 497. o
1147 1 3 3 -13 78518. 78619. 497. o
1148 3 -4 -3 -13 225. 66. 265. <
1148 1 4 3 13 225. 66. 265. <
1149 3 -4 -3 13 227. 180. 284. <
1149 1 4 3 -13 227. 180. 284. <
1150 3 -5 -3 -13 60255. 64328. 279. o
1150 2 3 5 -13 60255. 64328. 279. o
1150 1 5 3 13 60255. 64328. 279. o
1151 3 -5 -3 13 60279. 64611. 245. o
1151 2 3 5 13 60279. 64611. 245. o
1151 1 5 3 -13 60279. 64611. 245. o
1152 3 -6 -3 -13 1063. 1087. 274. o
1152 1 6 3 13 1063. 1087. 274. o
1153 3 -6 -3 13 1066. 794. 303. o
1153 1 6 3 -13 1066. 794. 303. o
1154 3 -7 -3 -13 6670. 6229. 296. o
1154 2 3 7 -13 6670. 6229. 296. o
1154 1 7 3 13 6670. 6229. 296. o
1155 3 -7 -3 13 6651. 6314. 323. o
1155 2 3 7 13 6651. 6314. 323. o
1155 1 7 3 -13 6651. 6314. 323. o
1156 3 -8 -3 -13 325. 728. 302. o
1156 1 8 3 13 325. 728. 302. o
1157 3 -8 -3 13 324. 709. 312. o
1157 1 8 3 -13 324. 709. 312. o
1158 3 -9 -3 -13 8561. 7958. 344. o
1158 2 3 9 -13 8561. 7958. 344. o
1158 1 9 3 13 8561. 7958. 344. o
1159 3 -9 -3 13 8566. 8006. 381. o
1159 2 3 9 13 8566. 8006. 381. o
1159 1 9 3 -13 8566. 8006. 381. o
1160 3 0 -5 -13 11514. 11682. 329. o
1160 1 0 5 13 11514. 11682. 329. o
1161 3 -1 -5 -13 25303. 24376. 313. o
1161 2 5 1 -13 25303. 24376. 313. o
1161 1 1 5 13 25303. 24376. 313. o
1162 3 -2 -5 -13 907. 378. 274. <
1162 1 2 5 13 907. 378. 274. <
1163 3 -2 -5 13 921. 690. 473. <
1163 1 2 5 -13 921. 690. 473. <
1164 3 -3 -5 -13 39205. 40566. 348. o
1164 2 5 3 -13 39205. 40566. 348. o
1164 1 3 5 13 39205. 40566. 348. o
1165 3 -3 -5 13 39240. 41578. 437. o
1165 2 5 3 13 39240. 41578. 437. o
1165 1 3 5 -13 39240. 41578. 437. o
1166 3 -4 -5 -13 2204. 2136. 236. o
1166 1 4 5 13 2204. 2136. 236. o
1167 3 -4 -5 13 2215. 2240. 321. o
1167 1 4 5 -13 2215. 2240. 321. o
1168 3 -5 -5 -13 4286. 4395. 274. o
1168 2 5 5 -13 4286. 4395. 274. o
1168 1 5 5 13 4286. 4395. 274. o
1169 3 -5 -5 13 4262. 4575. 311. o
1169 2 5 5 13 4262. 4575. 311. o
1169 1 5 5 -13 4262. 4575. 311. o
1170 3 -6 -5 -13 261. 378. 284. <
1170 1 6 5 13 261. 378. 284. <
1171 3 -6 -5 13 260. 491. 312. <
1171 1 6 5 -13 260. 491. 312. <
1172 3 -7 -5 -13 16412. 17155. 388. o
1172 2 5 7 -13 16412. 17155. 388. o
1172 1 7 5 13 16412. 17155. 388. o
1173 3 -7 -5 13 16428. 17722. 352. o
1173 2 5 7 13 16428. 17722. 352. o
1173 1 7 5 -13 16428. 17722. 352. o
1174 3 -8 -5 -13 149. 406. 321. <
1174 1 8 5 13 149. 406. 321. <
1175 3 -8 -5 13 149. 388. 321. <
1175 1 8 5 -13 149. 388. 321. <
1176 3 0 -7 -13 187. 85. 321. <
1176 1 0 7 13 187. 85. 321. <
1177 3 -1 -7 -13 5921. 6181. 225. o
1177 2 7 1 -13 5921. 6181. 225. o
1177 1 1 7 13 5921. 6181. 225. o
1178 3 -2 -7 -13 902. 851. 265. o
1178 1 2 7 13 902. 851. 265. o
1179 3 -2 -7 13 906. 917. 614. <
1179 1 2 7 -13 906. 917. 614. <
1180 3 -3 -7 -13 930. 955. 284. o
1180 2 7 3 -13 930. 955. 284. o
1180 1 3 7 13 930. 955. 284. o
1181 3 -3 -7 13 925. 1002. 605. <
1181 2 7 3 13 925. 1002. 605. <
1181 1 3 7 -13 925. 1002. 605. <
1182 3 -4 -7 -13 174. 378. 293. <
1182 1 4 7 13 174. 378. 293. <
1183 3 -4 -7 13 173. 388. 387. <
1183 1 4 7 -13 173. 388. 387. <
1184 3 -5 -7 -13 12665. 13081. 346. o
1184 2 7 5 -13 12665. 13081. 346. o
1184 1 5 7 13 12665. 13081. 346. o
1185 3 -5 -7 13 12684. 12996. 432. o
1185 2 7 5 13 12684. 12996. 432. o
1185 1 5 7 -13 12684. 12996. 432. o
1186 3 -6 -7 -13 116. 406. 302. <
1186 1 6 7 13 116. 406. 302. <
1187 3 -6 -7 13 117. 0. 359. <
1187 1 6 7 -13 117. 0. 359. <
1188 3 -7 -7 -13 168. 0. 312. <
1188 2 7 7 -13 168. 0. 312. <
1188 1 7 7 13 168. 0. 312. <
1189 3 -7 -7 13 159. 359. 359. <
1189 2 7 7 13 159. 359. 359. <
1189 1 7 7 -13 159. 359. 359. <
1190 3 0 -9 -13 45. 217. 350. <
1190 1 0 9 13 45. 217. 350. <
1191 3 -1 -9 -13 691. 709. 246. o
1191 2 9 1 -13 691. 709. 246. o
1191 1 1 9 13 691. 709. 246. o
1192 3 -2 -9 -13 303. 321. 255. <
1192 1 2 9 13 303. 321. 255. <
1193 3 -2 -9 13 302. 435. 841. <
1193 1 2 9 -13 302. 435. 841. <
1194 3 -3 -9 -13 4339. 4225. 303. o
1194 2 9 3 -13 4339. 4225. 303. o
1194 1 3 9 13 4339. 4225. 303. o
1195 3 -3 -9 13 4352. 4300. 624. o
1195 2 9 3 13 4352. 4300. 624. o
1195 1 3 9 -13 4352. 4300. 624. o
1196 3 -4 -9 -13 24. 378. 369. <
1196 1 4 9 13 24. 378. 369. <
1197 3 -4 -9 13 24. 208. 520. <
1197 1 4 9 -13 24. 208. 520. <
1198 3 0 0 -14 504773. 488630. 3038. o
1198 2 0 0 -14 504773. 488630. 3038. o
1198 1 0 0 14 504773. 488630. 3038. o
1199 3 -2 0 -14 10380. 11115. 344. o
1199 2 0 2 -14 10380. 11115. 344. o
1199 1 2 0 14 10380. 11115. 344. o
1200 3 -2 0 14 10341. 11569. 368. o
1200 2 0 2 14 10341. 11569. 368. o
1200 1 2 0 -14 10341. 11569. 368. o
1201 3 -4 0 -14 185739. 187860. 727. o
1201 2 0 4 -14 185739. 187860. 727. o
1201 1 4 0 14 185739. 187860. 727. o
1202 3 -4 0 14 185792. 190431. 490. o
1202 2 0 4 14 185792. 190431. 490. o
1202 1 4 0 -14 185792. 190431. 490. o
1203 3 -6 0 -14 253. 284. 359. <
1203 2 0 6 -14 253. 284. 359. <
1203 1 6 0 14 253. 284. 359. <
1204 3 -6 0 14 257. 293. 388. <
1204 2 0 6 14 257. 293. 388. <
1204 1 6 0 -14 257. 293. 388. <
1205 3 -8 0 -14 20401. 19867. 525. o
1205 2 0 8 -14 20401. 19867. 525. o
1205 1 8 0 14 20401. 19867. 525. o
1206 3 -8 0 14 20385. 19555. 519. o
1206 2 0 8 14 20385. 19555. 519. o
1206 1 8 0 -14 20385. 19555. 519. o
1207 3 -10 0 -14 131. 548. 463. <
1207 2 0 10 -14 131. 548. 463. <
1207 1 10 0 14 131. 548. 463. <
1208 3 -10 0 14 138. 9. 482. <
1208 2 0 10 14 138. 9. 482. <
1208 1 10 0 -14 138. 9. 482. <
1209 3 0 -2 -14 6587. 7580. 306. o
1209 2 2 0 -14 6587. 7580. 306. o
1209 1 0 2 14 6587. 7580. 306. o
1210 3 -1 -2 -14 1482. 1248. 284. o
1210 1 1 2 14 1482. 1248. 284. o
1211 3 -1 -2 14 1515. 1304. 255. o
1211 1 1 2 -14 1515. 1304. 255. o
1212 3 -2 -2 -14 277835. 288945. 5703. o
1212 2 2 2 -14 277835. 288945. 5703. o
1212 1 2 2 14 277835. 288945. 5703. o
1213 3 -2 -2 14 278009. 287934. 5689. o
1213 2 2 2 14 278009. 287934. 5689. o
1213 1 2 2 -14 278009. 287934. 5689. o
1214 3 -3 -2 -14 107. 189. 255. <
1214 1 3 2 14 107. 189. 255. <
1215 3 -3 -2 14 106. 180. 217. <
1215 1 3 2 -14 106. 180. 217. <
1216 3 -4 -2 -14 728. 813. 283. o
1216 2 2 4 -14 728. 813. 283. o
1216 1 4 2 14 728. 813. 283. o
1217 3 -4 -2 14 705. 907. 246. o
1217 2 2 4 14 705. 907. 246. o
1217 1 4 2 -14 705. 907. 246. o
1218 3 -5 -2 -14 888. 945. 265. o
1218 1 5 2 14 888. 945. 265. o
1219 3 -5 -2 14 893. 955. 246. o
1219 1 5 2 -14 893. 955. 246. o
1220 3 -6 -2 -14 55479. 56407. 391. o
1220 2 2 6 -14 55479. 56407. 391. o
1220 1 6 2 14 55479. 56407. 391. o
1221 3 -6 -2 14 55470. 57485. 335. o
1221 2 2 6 14 55470. 57485. 335. o
1221 1 6 2 -14 55470. 57485. 335. o
1222 3 -7 -2 -14 74. 359. 265. <
1222 1 7 2 14 74. 359. 265. <
1223 3 -7 -2 14 74. 246. 302. <
1223 1 7 2 -14 74. 246. 302. <
1224 3 -8 -2 -14 100. 123. 312. <
1224 2 2 8 -14 100. 123. 312. <
1224 1 8 2 14 100. 123. 312. <
1225 3 -8 -2 14 109. 284. 312. <
1225 2 2 8 14 109. 284. 312. <
1225 1 8 2 -14 109. 284. 312. <
1226 3 -9 -2 -14 140. 501. 312. <
1226 1 9 2 14 140. 501. 312. <
1227 3 -9 -2 14 140. 350. 350. <
1227 1 9 2 -14 140. 350. 350. <
1228 3 0 -4 -14 145976. 149676. 428. o
1228 2 4 0 -14 145976. 149676. 428. o
1228 1 0 4 14 145976. 149676. 428. o
1229 3 -1 -4 -14 348. 718. 217. o
1229 1 1 4 14 348. 718. 217. o
1230 3 -1 -4 14 354. 709. 416. <
1230 1 1 4 -14 354. 709. 416. <
1231 3 -2 -4 -14 524. 19. 265. <
1231 2 4 2 -14 524. 19. 265. <
1231 1 2 4 14 524. 19. 265. <
1232 3 -2 -4 14 483. 208. 303. <
1232 2 4 2 14 483. 208. 303. <
1232 1 2 4 -14 483. 208. 303. <
1233 3 -3 -4 -14 2093. 2098. 284. o
1233 1 3 4 14 2093. 2098. 284. o
1234 3 -3 -4 14 2107. 2212. 312. o
1234 1 3 4 -14 2107. 2212. 312. o
1235 3 -4 -4 -14 71749. 75528. 255. o
1235 2 4 4 -14 71749. 75528. 255. o
1235 1 4 4 14 71749. 75528. 255. o
1236 3 -4 -4 14 71764. 76492. 249. o
1236 2 4 4 14 71764. 76492. 249. o
1236 1 4 4 -14 71764. 76492. 249. o
1237 3 -5 -4 -14 155. 38. 274. <
1237 1 5 4 14 155. 38. 274. <
1238 3 -5 -4 14 154. 246. 312. <
1238 1 5 4 -14 154. 246. 312. <
1239 3 -6 -4 -14 123. 284. 312. <
1239 2 4 6 -14 123. 284. 312. <
1239 1 6 4 14 123. 284. 312. <
1240 3 -6 -4 14 126. 265. 293. <
1240 2 4 6 14 126. 265. 293. <
1240 1 6 4 -14 126. 265. 293. <
1241 3 -7 -4 -14 964. 784. 293. o
1241 1 7 4 14 964. 784. 293. o
1242 3 -7 -4 14 965. 870. 303. o
1242 1 7 4 -14 965. 870. 303. o
1243 3 -8 -4 -14 11997. 11663. 343. o
1243 2 4 8 -14 11997. 11663. 343. o
1243 1 8 4 14 11997. 11663. 343. o
1244 3 -8 -4 14 11991. 12164. 358. o
1244 2 4 8 14 11991. 12164. 358. o
1244 1 8 4 -14 11991. 12164. 358. o
1245 3 -9 -4 -14 183. 482. 359. <
1245 1 9 4 14 183. 482. 359. <
1246 3 -9 -4 14 183. 85. 350. <
1246 1 9 4 -14 183. 85. 350. <
1247 3 0 -6 -14 1648. 1815. 283. o
1247 2 6 0 -14 1648. 1815. 283. o
1247 1 0 6 14 1648. 1815. 283. o
1248 3 -1 -6 -14 761. 1077. 208. o
1248 1 1 6 14 761. 1077. 208. o
1249 3 -2 -6 -14 38713. 40028. 307. o
1249 2 6 2 -14 38713. 40028. 307. o
1249 1 2 6 14 38713. 40028. 307. o
1250 3 -2 -6 14 38702. 40793. 804. o
1250 2 6 2 14 38702. 40793. 804. o
1250 1 2 6 -14 38702. 40793. 804. o
1251 3 -3 -6 -14 123. 208. 293. <
1251 1 3 6 14 123. 208. 293. <
1252 3 -3 -6 14 123. 38. 435. <
1252 1 3 6 -14 123. 38. 435. <
1253 3 -4 -6 -14 672. 454. 255. <
1253 2 6 4 -14 672. 454. 255. <
1253 1 4 6 14 672. 454. 255. <
1254 3 -4 -6 14 673. 567. 359. <
1254 2 6 4 14 673. 567. 359. <
1254 1 4 6 -14 673. 567. 359. <
1255 3 -5 -6 -14 1446. 1229. 265. o
1255 1 5 6 14 1446. 1229. 265. o
1256 3 -5 -6 14 1447. 1389. 359. o
1256 1 5 6 -14 1447. 1389. 359. o
1257 3 -6 -6 -14 15023. 16115. 327. o
1257 2 6 6 -14 15023. 16115. 327. o
1257 1 6 6 14 15023. 16115. 327. o
1258 3 -6 -6 14 15020. 15368. 393. o
1258 2 6 6 14 15020. 15368. 393. o
1258 1 6 6 -14 15020. 15368. 393. o
1259 3 -7 -6 -14 377. 180. 293. <
1259 1 7 6 14 377. 180. 293. <
1260 3 -7 -6 14 377. 274. 340. <
1260 1 7 6 -14 377. 274. 340. <
1261 3 -8 -6 -14 77. 132. 350. <
1261 2 6 8 -14 77. 132. 350. <
1261 1 8 6 14 77. 132. 350. <
1262 3 -8 -6 14 79. 501. 369. <
1262 2 6 8 14 79. 501. 369. <
1262 1 8 6 -14 79. 501. 369. <
1263 3 0 -8 -14 11705. 11399. 381. o
1263 2 8 0 -14 11705. 11399. 381. o
1263 1 0 8 14 11705. 11399. 381. o
1264 3 -1 -8 -14 192. 180. 217. <
1264 1 1 8 14 192. 180. 217. <
1265 3 -2 -8 -14 777. 766. 227. o
1265 2 8 2 -14 777. 766. 227. o
1265 1 2 8 14 777. 766. 227. o
1266 3 -2 -8 14 789. 766. 681. <
1266 2 8 2 14 789. 766. 681. <
1266 1 2 8 -14 789. 766. 681. <
1267 3 -3 -8 -14 634. 756. 312. o
1267 1 3 8 14 634. 756. 312. o
1268 3 -3 -8 14 634. 766. 699. <
1268 1 3 8 -14 634. 766. 699. <
1269 3 -4 -8 -14 9114. 8667. 371. o
1269 2 8 4 -14 9114. 8667. 371. o
1269 1 4 8 14 9114. 8667. 371. o
1270 3 -4 -8 14 9110. 9839. 668. o
1270 2 8 4 14 9110. 9839. 668. o
1270 1 4 8 -14 9110. 9839. 668. o
1271 3 -5 -8 -14 310. 425. 340. <
1271 1 5 8 14 310. 425. 340. <
1272 3 -5 -8 14 310. 435. 463. <
1272 1 5 8 -14 310. 435. 463. <
1273 3 -6 -8 -14 149. 435. 369. <
1273 2 8 6 -14 149. 435. 369. <
1273 1 6 8 14 149. 435. 369. <
1274 3 -6 -8 14 152. 388. 463. <
1274 2 8 6 14 152. 388. 463. <
1274 1 6 8 -14 152. 388. 463. <
1275 3 0 -10 -14 230. 312. 416. <
1275 2 10 0 -14 230. 312. 416. <
1275 1 0 10 14 230. 312. 416. <
1276 3 -1 -10 -14 117. 217. 284. <
1276 1 1 10 14 117. 217. 284. <
1277 3 0 -1 -15 35906. 41398. 185. o
1277 1 0 1 15 35906. 41398. 185. o
1278 3 -1 -1 -15 351. 416. 236. <
1278 2 1 1 -15 351. 416. 236. <
1278 1 1 1 15 351. 416. 236. <
1279 3 -1 -1 15 357. 321. 217. <
1279 2 1 1 15 357. 321. 217. <
1279 1 1 1 -15 357. 321. 217. <
1280 3 -2 -1 -15 96573. 93996. 656. o
1280 1 2 1 15 96573. 93996. 656. o
1281 3 -2 -1 15 96280. 92957. 632. o
1281 1 2 1 -15 96280. 92957. 632. o
1282 3 -3 -1 -15 1220. 662. 256. o
1282 2 1 3 -15 1220. 662. 256. o
1282 1 3 1 15 1220. 662. 256. o
1283 3 -3 -1 15 1221. 699. 227. o
1283 2 1 3 15 1221. 699. 227. o
1283 1 3 1 -15 1221. 699. 227. o
1284 3 -4 -1 -15 21138. 23147. 260. o
1284 1 4 1 15 21138. 23147. 260. o
1285 3 -4 -1 15 21175. 22703. 271. o
1285 1 4 1 -15 21175. 22703. 271. o
1286 3 -5 -1 -15 1331. 1342. 236. o
1286 2 1 5 -15 1331. 1342. 236. o
1286 1 5 1 15 1331. 1342. 236. o
1287 3 -5 -1 15 1328. 1163. 255. o
1287 2 1 5 15 1328. 1163. 255. o
1287 1 5 1 -15 1328. 1163. 255. o
1288 3 -6 -1 -15 17562. 17174. 327. o
1288 1 6 1 15 17562. 17174. 327. o
1289 3 -6 -1 15 17553. 18005. 315. o
1289 1 6 1 -15 17553. 18005. 315. o
1290 3 -7 -1 -15 1261. 2023. 301. o
1290 2 1 7 -15 1261. 2023. 301. o
1290 1 7 1 15 1261. 2023. 301. o
1291 3 -7 -1 15 1261. 1890. 320. o
1291 2 1 7 15 1261. 1890. 320. o
1291 1 7 1 -15 1261. 1890. 320. o
1292 3 -8 -1 -15 4062. 4111. 331. o
1292 1 8 1 15 4062. 4111. 331. o
1293 3 -8 -1 15 4063. 4593. 319. o
1293 1 8 1 -15 4063. 4593. 319. o
1294 3 -9 -1 -15 200. 624. 312. <
1294 2 1 9 -15 200. 624. 312. <
1294 1 9 1 15 200. 624. 312. <
1295 3 -9 -1 15 199. 444. 321. <
1295 2 1 9 15 199. 444. 321. <
1295 1 9 1 -15 199. 444. 321. <
1296 3 0 -3 -15 159789. 146150. 1259. o
1296 1 0 3 15 159789. 146150. 1259. o
1297 3 -1 -3 -15 2043. 1248. 322. o
1297 2 3 1 -15 2043. 1248. 322. o
1297 1 1 3 15 2043. 1248. 322. o
1298 3 -1 -3 15 2003. 1323. 379. o
1298 2 3 1 15 2003. 1323. 379. o
1298 1 1 3 -15 2003. 1323. 379. o
1299 3 -2 -3 -15 3639. 4121. 329. o
1299 1 2 3 15 3639. 4121. 329. o
1300 3 -2 -3 15 3681. 4423. 262. o
1300 1 2 3 -15 3681. 4423. 262. o
1301 3 -3 -3 -15 1358. 491. 275. <
1301 2 3 3 -15 1358. 491. 275. <
1301 1 3 3 15 1358. 491. 275. <
1302 3 -3 -3 15 1344. 624. 256. o
1302 2 3 3 15 1344. 624. 256. o
1302 1 3 3 -15 1344. 624. 256. o
1303 3 -4 -3 -15 55306. 54271. 442. o
1303 1 4 3 15 55306. 54271. 442. o
1304 3 -4 -3 15 55253. 54300. 448. o
1304 1 4 3 -15 55253. 54300. 448. o
1305 3 -5 -3 -15 2790. 2958. 302. o
1305 2 3 5 -15 2790. 2958. 302. o
1305 1 5 3 15 2790. 2958. 302. o
1306 3 -5 -3 15 2787. 3270. 292. o
1306 2 3 5 15 2787. 3270. 292. o
1306 1 5 3 -15 2787. 3270. 292. o
1307 3 -6 -3 -15 5303. 6021. 280. o
1307 1 6 3 15 5303. 6021. 280. o
1308 3 -6 -3 15 5309. 6711. 314. o
1308 1 6 3 -15 5309. 6711. 314. o
1309 3 -7 -3 -15 274. 406. 274. <
1309 2 3 7 -15 274. 406. 274. <
1309 1 7 3 15 274. 406. 274. <
1310 3 -7 -3 15 271. 302. 293. <
1310 2 3 7 15 271. 302. 293. <
1310 1 7 3 -15 271. 302. 293. <
1311 3 -8 -3 -15 4964. 4225. 315. o
1311 1 8 3 15 4964. 4225. 315. o
1312 3 -8 -3 15 4963. 4471. 314. o
1312 1 8 3 -15 4963. 4471. 314. o
1313 3 -9 -3 -15 551. 1002. 330. o
1313 2 3 9 -15 551. 1002. 330. o
1313 1 9 3 15 551. 1002. 330. o
1314 3 -9 -3 15 551. 822. 368. o
1314 2 3 9 15 551. 822. 368. o
1314 1 9 3 -15 551. 822. 368. o
1315 3 0 -5 -15 714. 662. 265. o
1315 1 0 5 15 714. 662. 265. o
1316 3 -1 -5 -15 3299. 2533. 220. o
1316 2 5 1 -15 3299. 2533. 220. o
1316 1 1 5 15 3299. 2533. 220. o
1317 3 -2 -5 -15 66963. 65840. 583. o
1317 1 2 5 15 66963. 65840. 583. o
1318 3 -2 -5 15 66956. 66880. 767. o
1318 1 2 5 -15 66956. 66880. 767. o
1319 3 -3 -5 -15 3869. 3989. 245. o
1319 2 5 3 -15 3869. 3989. 245. o
1319 1 3 5 15 3869. 3989. 245. o
1320 3 -3 -5 15 3864. 3913. 321. o
1320 2 5 3 15 3864. 3913. 321. o
1320 1 3 5 -15 3864. 3913. 321. o
1321 3 -4 -5 -15 2361. 2457. 264. o
1321 1 4 5 15 2361. 2457. 264. o
1322 3 -4 -5 15 2363. 2817. 349. o
1322 1 4 5 -15 2363. 2817. 349. o
1323 3 -5 -5 -15 431. 180. 265. <
1323 2 5 5 -15 431. 180. 265. <
1323 1 5 5 15 431. 180. 265. <
1324 3 -5 -5 15 425. 57. 350. <
1324 2 5 5 15 425. 57. 350. <
1324 1 5 5 -15 425. 57. 350. <
1325 3 -6 -5 -15 11476. 11040. 307. o
1325 1 6 5 15 11476. 11040. 307. o
1326 3 -6 -5 15 11474. 11077. 362. o
1326 1 6 5 -15 11474. 11077. 362. o
1327 3 -7 -5 -15 1246. 1720. 330. o
1327 2 5 7 -15 1246. 1720. 330. o
1327 1 7 5 15 1246. 1720. 330. o
1328 3 -7 -5 15 1248. 1749. 340. o
1328 2 5 7 15 1248. 1749. 340. o
1328 1 7 5 -15 1248. 1749. 340. o
1329 3 -8 -5 -15 1805. 2127. 387. o
1329 1 8 5 15 1805. 2127. 387. o
1330 3 -8 -5 15 1806. 1862. 359. o
1330 1 8 5 -15 1806. 1862. 359. o
1331 3 0 -7 -15 23974. 23638. 393. o
1331 1 0 7 15 23974. 23638. 393. o
1332 3 -1 -7 -15 2676. 2817. 236. o
1332 2 7 1 -15 2676. 2817. 236. o
1332 1 1 7 15 2676. 2817. 236. o
1333 3 -2 -7 -15 1188. 1285. 246. o
1333 1 2 7 15 1188. 1285. 246. o
1334 3 -2 -7 15 1189. 1503. 671. o
1334 1 2 7 -15 1189. 1503. 671. o
1335 3 -3 -7 -15 615. 595. 274. o
1335 2 7 3 -15 615. 595. 274. o
1335 1 3 7 15 615. 595. 274. o
1336 3 -3 -7 15 611. 501. 595. <
1336 2 7 3 15 611. 501. 595. <
1336 1 3 7 -15 611. 501. 595. <
1337 3 -4 -7 -15 10769. 10746. 331. o
1337 1 4 7 15 10769. 10746. 331. o
1338 3 -4 -7 15 10767. 10576. 474. o
1338 1 4 7 -15 10767. 10576. 474. o
1339 3 -5 -7 -15 1404. 1465. 312. o
1339 2 7 5 -15 1404. 1465. 312. o
1339 1 5 7 15 1404. 1465. 312. o
1340 3 -5 -7 15 1407. 1446. 425. o
1340 2 7 5 15 1407. 1446. 425. o
1340 1 5 7 -15 1407. 1446. 425. o
1341 3 -6 -7 -15 1799. 1654. 331. o
1341 1 6 7 15 1799. 1654. 331. o
1342 3 -6 -7 15 1800. 1947. 397. o
1342 1 6 7 -15 1800. 1947. 397. o
1343 3 -7 -7 -15 76. 198. 350. <
1343 2 7 7 -15 76. 198. 350. <
1343 1 7 7 15 76. 198. 350. <
1344 3 -7 -7 15 74. 38. 406. <
1344 2 7 7 15 74. 38. 406. <
1344 1 7 7 -15 74. 38. 406. <
1345 3 0 -9 -15 1370. 1673. 368. o
1345 1 0 9 15 1370. 1673. 368. o
1346 3 -1 -9 -15 416. 671. 255. o
1346 2 9 1 -15 416. 671. 255. o
1346 1 1 9 15 416. 671. 255. o
1347 3 -2 -9 -15 3403. 3166. 284. o
1347 1 2 9 15 3403. 3166. 284. o
1348 3 -3 -9 -15 735. 841. 312. o
1348 2 9 3 -15 735. 841. 312. o
1348 1 3 9 15 735. 841. 312. o
1349 3 -3 -9 15 736. 681. 728. <
1349 2 9 3 15 736. 681. 728. <
1349 1 3 9 -15 736. 681. 728. <
1350 3 -4 -9 -15 1269. 1267. 369. o
1350 1 4 9 15 1269. 1267. 369. o
1351 3 -4 -9 15 1270. 1408. 539. o
1351 1 4 9 -15 1270. 1408. 539. o
1352 3 0 0 -16 67081. 54772. 972. o
1352 2 0 0 -16 67081. 54772. 972. o
1352 1 0 0 16 67081. 54772. 972. o
1353 3 -2 0 -16 15952. 14480. 412. o
1353 2 0 2 -16 15952. 14480. 412. o
1353 1 2 0 16 15952. 14480. 412. o
1354 3 -2 0 16 16130. 14470. 404. o
1354 2 0 2 16 16130. 14470. 404. o
1354 1 2 0 -16 16130. 14470. 404. o
1355 3 -4 0 -16 14664. 14801. 415. o
1355 2 0 4 -16 14664. 14801. 415. o
1355 1 4 0 16 14664. 14801. 415. o
1356 3 -4 0 16 14704. 14877. 414. o
1356 2 0 4 16 14704. 14877. 414. o
1356 1 4 0 -16 14704. 14877. 414. o
1357 3 -6 0 -16 539. 151. 378. <
1357 2 0 6 -16 539. 151. 378. <
1357 1 6 0 16 539. 151. 378. <
1358 3 -6 0 16 542. 85. 369. <
1358 2 0 6 16 542. 85. 369. <
1358 1 6 0 -16 542. 85. 369. <
1359 3 -8 0 -16 1286. 1153. 454. o
1359 2 0 8 -16 1286. 1153. 454. o
1359 1 8 0 16 1286. 1153. 454. o
1360 3 -8 0 16 1290. 699. 501. <
1360 2 0 8 16 1290. 699. 501. <
1360 1 8 0 -16 1290. 699. 501. <
1361 3 0 -2 -16 11042. 9584. 306. o
1361 2 2 0 -16 11042. 9584. 306. o
1361 1 0 2 16 11042. 9584. 306. o
1362 3 -1 -2 -16 44294. 43496. 456. o
1362 1 1 2 16 44294. 43496. 456. o
1363 3 -1 -2 16 44409. 43572. 529. o
1363 1 1 2 -16 44409. 43572. 529. o
1364 3 -2 -2 -16 24935. 24744. 363. o
1364 2 2 2 -16 24935. 24744. 363. o
1364 1 2 2 16 24935. 24744. 363. o
1365 3 -2 -2 16 24987. 24187. 328. o
1365 2 2 2 16 24987. 24187. 328. o
1365 1 2 2 -16 24987. 24187. 328. o
1366 3 -3 -2 -16 12016. 13648. 283. o
1366 1 3 2 16 12016. 13648. 283. o
1367 3 -3 -2 16 12038. 13355. 257. o
1367 1 3 2 -16 12038. 13355. 257. o
1368 3 -4 -2 -16 1760. 1853. 293. o
1368 2 2 4 -16 1760. 1853. 293. o
1368 1 4 2 16 1760. 1853. 293. o
1369 3 -4 -2 16 1772. 1938. 245. o
1369 2 2 4 16 1772. 1938. 245. o
1369 1 4 2 -16 1772. 1938. 245. o
1370 3 -5 -2 -16 6442. 6181. 304. o
1370 1 5 2 16 6442. 6181. 304. o
1371 3 -5 -2 16 6444. 6635. 282. o
1371 1 5 2 -16 6444. 6635. 282. o
1372 3 -6 -2 -16 3124. 2854. 303. o
1372 2 2 6 -16 3124. 2854. 303. o
1372 1 6 2 16 3124. 2854. 303. o
1373 3 -6 -2 16 3130. 3015. 284. o
1373 2 2 6 16 3130. 3015. 284. o
1373 1 6 2 -16 3130. 3015. 284. o
1374 3 -7 -2 -16 3. 123. 274. <
1374 1 7 2 16 3. 123. 274. <
1375 3 -7 -2 16 3. 274. 274. <
1375 1 7 2 -16 3. 274. 274. <
1376 3 -8 -2 -16 126. 85. 293. <
1376 2 2 8 -16 126. 85. 293. <
1376 1 8 2 16 126. 85. 293. <
1377 3 -8 -2 16 125. 302. 331. <
1377 2 2 8 16 125. 302. 331. <
1377 1 8 2 -16 125. 302. 331. <
1378 3 -9 -2 -16 291. 274. 340. <
1378 1 9 2 16 291. 274. 340. <
1379 3 -9 -2 16 291. 378. 350. <
1379 1 9 2 -16 291. 378. 350. <
1380 3 0 -4 -16 6295. 6181. 303. o
1380 2 4 0 -16 6295. 6181. 303. o
1380 1 0 4 16 6295. 6181. 303. o
1381 3 -1 -4 -16 43796. 45179. 310. o
1381 1 1 4 16 43796. 45179. 310. o
1382 3 -1 -4 16 43817. 47069. 524. o
1382 1 1 4 -16 43817. 47069. 524. o
1383 3 -2 -4 -16 222. 142. 284. <
1383 2 4 2 -16 222. 142. 284. <
1383 1 2 4 16 222. 142. 284. <
1384 3 -2 -4 16 227. 284. 274. <
1384 2 4 2 16 227. 284. 274. <
1384 1 2 4 -16 227. 284. 274. <
1385 3 -3 -4 -16 31617. 33345. 346. o
1385 1 3 4 16 31617. 33345. 346. o
1386 3 -3 -4 16 31625. 33336. 347. o
1386 1 3 4 -16 31625. 33336. 347. o
1387 3 -4 -4 -16 3415. 3667. 273. o
1387 2 4 4 -16 3415. 3667. 273. o
1387 1 4 4 16 3415. 3667. 273. o
1388 3 -4 -4 16 3414. 3809. 301. o
1388 2 4 4 16 3414. 3809. 301. o
1388 1 4 4 -16 3414. 3809. 301. o
1389 3 -5 -4 -16 1025. 1474. 274. o
1389 1 5 4 16 1025. 1474. 274. o
1390 3 -5 -4 16 1025. 1474. 302. o
1390 1 5 4 -16 1025. 1474. 302. o
1391 3 -6 -4 -16 96. 161. 274. <
1391 2 4 6 -16 96. 161. 274. <
1391 1 6 4 16 96. 161. 274. <
1392 3 -6 -4 16 97. 113. 312. <
1392 2 4 6 16 97. 113. 312. <
1392 1 6 4 -16 97. 113. 312. <
1393 3 -7 -4 -16 2792. 2382. 332. o
1393 1 7 4 16 2792. 2382. 332. o
1394 3 -7 -4 16 2791. 2155. 323. o
1394 1 7 4 -16 2791. 2155. 323. o
1395 3 -8 -4 -16 937. 907. 321. o
1395 2 4 8 -16 937. 907. 321. o
1395 1 8 4 16 937. 907. 321. o
1396 3 -8 -4 16 939. 1134. 350. o
1396 2 4 8 16 939. 1134. 350. o
1396 1 8 4 -16 939. 1134. 350. o
1397 3 -9 -4 -16 225. 293. 321. <
1397 1 9 4 16 225. 293. 321. <
1398 3 -9 -4 16 225. 586. 368. <
1398 1 9 4 -16 225. 586. 368. <
1399 3 0 -6 -16 880. 879. 312. o
1399 2 6 0 -16 880. 879. 312. o
1399 1 0 6 16 880. 879. 312. o
1400 3 -1 -6 -16 19328. 19480. 262. o
1400 1 1 6 16 19328. 19480. 262. o
1401 3 -2 -6 -16 664. 747. 246. o
1401 2 6 2 -16 664. 747. 246. o
1401 1 2 6 16 664. 747. 246. o
1402 3 -2 -6 16 659. 803. 548. <
1402 2 6 2 16 659. 803. 548. <
1402 1 2 6 -16 659. 803. 548. <
1403 3 -3 -6 -16 3283. 3809. 320. o
1403 1 3 6 16 3283. 3809. 320. o
1404 3 -3 -6 16 3282. 3922. 509. o
1404 1 3 6 -16 3282. 3922. 509. o
1405 3 -4 -6 -16 22. 113. 293. <
1405 2 6 4 -16 22. 113. 293. <
1405 1 4 6 16 22. 113. 293. <
1406 3 -4 -6 16 22. 132. 378. <
1406 2 6 4 16 22. 132. 378. <
1406 1 4 6 -16 22. 132. 378. <
1407 3 -5 -6 -16 5983. 6021. 302. o
1407 1 5 6 16 5983. 6021. 302. o
1408 3 -5 -6 16 5982. 6295. 415. o
1408 1 5 6 -16 5982. 6295. 415. o
1409 3 -6 -6 -16 1106. 1134. 312. o
1409 2 6 6 -16 1106. 1134. 312. o
1409 1 6 6 16 1106. 1134. 312. o
1410 3 -6 -6 16 1104. 1474. 368. o
1410 2 6 6 16 1104. 1474. 368. o
1410 1 6 6 -16 1104. 1474. 368. o
1411 3 -7 -6 -16 325. 331. 321. <
1411 1 7 6 16 325. 331. 321. <
1412 3 -7 -6 16 325. 312. 350. <
1412 1 7 6 -16 325. 312. 350. <
1413 3 0 -8 -16 155. 624. 350. <
1413 2 8 0 -16 155. 624. 350. <
1413 1 0 8 16 155. 624. 350. <
1414 3 -1 -8 -16 853. 1125. 227. o
1414 1 1 8 16 853. 1125. 227. o
1415 3 -2 -8 -16 190. 274. 246. <
1415 2 8 2 -16 190. 274. 246. <
1415 1 2 8 16 190. 274. 246. <
1416 3 -3 -8 -16 2382. 2873. 339. o
1416 1 3 8 16 2382. 2873. 339. o
1417 3 -3 -8 16 2381. 2542. 614. o
1417 1 3 8 -16 2381. 2542. 614. o
1418 3 -4 -8 -16 601. 747. 312. o
1418 2 8 4 -16 601. 747. 312. o
1418 1 4 8 16 601. 747. 312. o
1419 3 -4 -8 16 599. 633. 633. <
1419 2 8 4 16 599. 633. 633. <
1419 1 4 8 -16 599. 633. 633. <
1420 3 -5 -8 -16 230. 189. 331. <
1420 1 5 8 16 230. 189. 331. <
1421 3 -5 -8 16 231. 66. 501. <
1421 1 5 8 -16 231. 66. 501. <
1422 3 0 -10 -16 19. 28. 397. <
1422 2 10 0 -16 19. 28. 397. <
1422 1 0 10 16 19. 28. 397. <
1423 3 0 -1 -17 23524. 20718. 352. o
1423 1 0 1 17 23524. 20718. 352. o
1424 3 -1 -1 -17 25346. 27400. 272. o
1424 2 1 1 -17 25346. 27400. 272. o
1424 1 1 1 17 25346. 27400. 272. o
1425 3 -1 -1 17 25201. 26814. 357. o
1425 2 1 1 17 25201. 26814. 357. o
1425 1 1 1 -17 25201. 26814. 357. o
1426 3 -2 -1 -17 64602. 67863. 354. o
1426 1 2 1 17 64602. 67863. 354. o
1427 3 -2 -1 17 64675. 67664. 273. o
1427 1 2 1 -17 64675. 67664. 273. o
1428 3 -3 -1 -17 17910. 18572. 321. o
1428 2 1 3 -17 17910. 18572. 321. o
1428 1 3 1 17 17910. 18572. 321. o
1429 3 -3 -1 17 17864. 17968. 282. o
1429 2 1 3 17 17864. 17968. 282. o
1429 1 3 1 -17 17864. 17968. 282. o
1430 3 -4 -1 -17 13955. 14045. 273. o
1430 1 4 1 17 13955. 14045. 273. o
1431 3 -4 -1 17 13946. 14234. 261. o
1431 1 4 1 -17 13946. 14234. 261. o
1432 3 -5 -1 -17 7171. 7259. 273. o
1432 2 1 5 -17 7171. 7259. 273. o
1432 1 5 1 17 7171. 7259. 273. o
1433 3 -5 -1 17 7171. 7145. 265. o
1433 2 1 5 17 7171. 7145. 265. o
1433 1 5 1 -17 7171. 7145. 265. o
1434 3 -6 -1 -17 12010. 11796. 305. o
1434 1 6 1 17 12010. 11796. 305. o
1435 3 -6 -1 17 12012. 12060. 292. o
1435 1 6 1 -17 12012. 12060. 292. o
1436 3 -7 -1 -17 4824. 4395. 314. o
1436 2 1 7 -17 4824. 4395. 314. o
1436 1 7 1 17 4824. 4395. 314. o
1437 3 -7 -1 17 4826. 4575. 294. o
1437 2 1 7 17 4826. 4575. 294. o
1437 1 7 1 -17 4826. 4575. 294. o
1438 3 -8 -1 -17 2624. 2873. 311. o
1438 1 8 1 17 2624. 2873. 311. o
1439 3 -8 -1 17 2623. 2646. 340. o
1439 1 8 1 -17 2623. 2646. 340. o
1440 3 -9 -1 -17 1685. 1805. 359. o
1440 2 1 9 -17 1685. 1805. 359. o
1440 1 9 1 17 1685. 1805. 359. o
1441 3 -9 -1 17 1686. 1380. 359. o
1441 2 1 9 17 1686. 1380. 359. o
1441 1 9 1 -17 1686. 1380. 359. o
1442 3 0 -3 -17 103549. 108486. 271. o
1442 1 0 3 17 103549. 108486. 271. o
1443 3 -1 -3 -17 17370. 16881. 393. o
1443 2 3 1 -17 17370. 16881. 393. o
1443 1 1 3 17 17370. 16881. 393. o
1444 3 -1 -3 17 17240. 17278. 520. o
1444 2 3 1 17 17240. 17278. 520. o
1444 1 1 3 -17 17240. 17278. 520. o
1445 3 -2 -3 -17 2528. 2221. 331. o
1445 1 2 3 17 2528. 2221. 331. o
1446 3 -2 -3 17 2528. 2202. 256. o
1446 1 2 3 -17 2528. 2202. 256. o
1447 3 -3 -3 -17 8464. 8365. 322. o
1447 2 3 3 -17 8464. 8365. 322. o
1447 1 3 3 17 8464. 8365. 322. o
1448 3 -3 -3 17 8421. 8497. 283. o
1448 2 3 3 17 8421. 8497. 283. o
1448 1 3 3 -17 8421. 8497. 283. o
1449 3 -4 -3 -17 37992. 38392. 387. o
1449 1 4 3 17 37992. 38392. 387. o
1450 3 -4 -3 17 37999. 39149. 335. o
1450 1 4 3 -17 37999. 39149. 335. o
1451 3 -5 -3 -17 9788. 9452. 352. o
1451 2 3 5 -17 9788. 9452. 352. o
1451 1 5 3 17 9788. 9452. 352. o
1452 3 -5 -3 17 9772. 9480. 314. o
1452 2 3 5 17 9772. 9480. 314. o
1452 1 5 3 -17 9772. 9480. 314. o
1453 3 -6 -3 -17 3341. 3592. 321. o
1453 1 6 3 17 3341. 3592. 321. o
1454 3 -6 -3 17 3341. 3516. 283. o
1454 1 6 3 -17 3341. 3516. 283. o
1455 3 -7 -3 -17 2189. 2297. 283. o
1455 2 3 7 -17 2189. 2297. 283. o
1455 1 7 3 17 2189. 2297. 283. o
1456 3 -7 -3 17 2189. 1938. 312. o
1456 2 3 7 17 2189. 1938. 312. o
1456 1 7 3 -17 2189. 1938. 312. o
1457 3 -8 -3 -17 3611. 3743. 321. o
1457 1 8 3 17 3611. 3743. 321. o
1458 3 -8 -3 17 3611. 3601. 350. o
1458 1 8 3 -17 3611. 3601. 350. o
1459 3 -9 -3 -17 2535. 2183. 360. o
1459 2 3 9 -17 2535. 2183. 360. o
1459 1 9 3 17 2535. 2183. 360. o
1460 3 -9 -3 17 2535. 2798. 387. o
1460 2 3 9 17 2535. 2798. 387. o
1460 1 9 3 -17 2535. 2798. 387. o
1461 3 0 -5 -17 322. 170. 265. <
1461 1 0 5 17 322. 170. 265. <
1462 3 -1 -5 -17 6682. 6635. 208. o
1462 2 5 1 -17 6682. 6635. 208. o
1462 1 1 5 17 6682. 6635. 208. o
1463 3 -2 -5 -17 46823. 48704. 502. o
1463 1 2 5 17 46823. 48704. 502. o
1464 3 -2 -5 17 46796. 48128. 694. o
1464 1 2 5 -17 46796. 48128. 694. o
1465 3 -3 -5 -17 9801. 9537. 305. o
1465 2 5 3 -17 9801. 9537. 305. o
1465 1 3 5 17 9801. 9537. 305. o
1466 3 -3 -5 17 9764. 9574. 342. o
1466 2 5 3 17 9764. 9574. 342. o
1466 1 3 5 -17 9764. 9574. 342. o
1467 3 -4 -5 -17 1468. 1333. 284. o
1467 1 4 5 17 1468. 1333. 284. o
1468 3 -4 -5 17 1470. 1522. 331. o
1468 1 4 5 -17 1470. 1522. 331. o
1469 3 -5 -5 -17 2360. 2382. 274. o
1469 2 5 5 -17 2360. 2382. 274. o
1469 1 5 5 17 2360. 2382. 274. o
1470 3 -5 -5 17 2353. 2505. 340. o
1470 2 5 5 17 2353. 2505. 340. o
1470 1 5 5 -17 2353. 2505. 340. o
1471 3 -6 -5 -17 8641. 7760. 318. o
1471 1 6 5 17 8641. 7760. 318. o
1472 3 -6 -5 17 8639. 8317. 361. o
1472 1 6 5 -17 8639. 8317. 361. o
1473 3 -7 -5 -17 4846. 4584. 322. o
1473 2 5 7 -17 4846. 4584. 322. o
1473 1 7 5 17 4846. 4584. 322. o
1474 3 -7 -5 17 4842. 4924. 368. o
1474 2 5 7 17 4842. 4924. 368. o
1474 1 7 5 -17 4842. 4924. 368. o
1475 3 -8 -5 -17 1147. 955. 397. o
1475 1 8 5 17 1147. 955. 397. o
1476 3 -8 -5 17 1148. 1314. 368. o
1476 1 8 5 -17 1148. 1314. 368. o
1477 3 0 -7 -17 17877. 18374. 362. o
1477 1 0 7 17 17877. 18374. 362. o
1478 3 -1 -7 -17 4960. 4811. 228. o
1478 2 7 1 -17 4960. 4811. 228. o
1478 1 1 7 17 4960. 4811. 228. o
1479 3 -2 -7 -17 836. 822. 246. o
1479 1 2 7 17 836. 822. 246. o
1480 3 -3 -7 -17 2243. 2335. 293. o
1480 2 7 3 -17 2243. 2335. 293. o
1480 1 3 7 17 2243. 2335. 293. o
1481 3 -3 -7 17 2231. 2268. 539. o
1481 2 7 3 17 2231. 2268. 539. o
1481 1 3 7 -17 2231. 2268. 539. o
1482 3 -4 -7 -17 8416. 8384. 331. o
1482 1 4 7 17 8416. 8384. 331. o
1483 3 -4 -7 17 8414. 8469. 444. o
1483 1 4 7 -17 8414. 8469. 444. o
1484 3 -5 -7 -17 5220. 5085. 312. o
1484 2 7 5 -17 5220. 5085. 312. o
1484 1 5 7 17 5220. 5085. 312. o
1485 3 -5 -7 17 5212. 5539. 462. o
1485 2 7 5 17 5212. 5539. 462. o
1485 1 5 7 -17 5212. 5539. 462. o
1486 3 -6 -7 -17 1160. 964. 350. o
1486 1 6 7 17 1160. 964. 350. o
1487 3 -6 -7 17 1160. 1285. 454. o
1487 1 6 7 -17 1160. 1285. 454. o
1488 3 0 -9 -17 871. 766. 406. <
1488 1 0 9 17 871. 766. 406. <
1489 3 -1 -9 -17 2000. 2174. 264. o
1489 2 9 1 -17 2000. 2174. 264. o
1489 1 1 9 17 2000. 2174. 264. o
1490 3 -2 -9 -17 2814. 2864. 274. o
1490 1 2 9 17 2814. 2864. 274. o
1491 3 -3 -9 -17 3143. 2987. 275. o
1491 2 9 3 -17 3143. 2987. 275. o
1491 1 3 9 17 3143. 2987. 275. o
1492 3 -4 -9 -17 802. 879. 350. o
1492 1 4 9 17 802. 879. 350. o
1493 3 -4 -9 17 802. 718. 643. <
1493 1 4 9 -17 802. 718. 643. <
1494 3 0 0 -18 43084. 45566. 696. o
1494 2 0 0 -18 43084. 45566. 696. o
1494 1 0 0 18 43084. 45566. 696. o
1495 3 -2 0 -18 37217. 38704. 460. o
1495 2 0 2 -18 37217. 38704. 460. o
1495 1 2 0 18 37217. 38704. 460. o
1496 3 -2 0 18 37437. 37778. 465. o
1496 2 0 2 18 37437. 37778. 465. o
1496 1 2 0 -18 37437. 37778. 465. o
1497 3 -4 0 -18 42862. 44252. 447. o
1497 2 0 4 -18 42862. 44252. 447. o
1497 1 4 0 18 42862. 44252. 447. o
1498 3 -4 0 18 42870. 43572. 455. o
1498 2 0 4 18 42870. 43572. 455. o
1498 1 4 0 -18 42870. 43572. 455. o
1499 3 -6 0 -18 814. 567. 350. <
1499 2 0 6 -18 814. 567. 350. <
1499 1 6 0 18 814. 567. 350. <
1500 3 -6 0 18 849. 397. 416. <
1500 2 0 6 18 849. 397. 416. <
1500 1 6 0 -18 849. 397. 416. <
1501 3 -8 0 -18 14725. 15444. 495. o
1501 2 0 8 -18 14725. 15444. 495. o
1501 1 8 0 18 14725. 15444. 495. o
1502 3 -8 0 18 14720. 16351. 536. o
1502 2 0 8 18 14720. 16351. 536. o
1502 1 8 0 -18 14720. 16351. 536. o
1503 3 0 -2 -18 28317. 28289. 360. o
1503 2 2 0 -18 28317. 28289. 360. o
1503 1 0 2 18 28317. 28289. 360. o
1504 3 -1 -2 -18 201. 577. 208. o
1504 1 1 2 18 201. 577. 208. o
1505 3 -1 -2 18 207. 397. 331. <
1505 1 1 2 -18 207. 397. 331. <
1506 3 -2 -2 -18 53716. 56313. 335. o
1506 2 2 2 -18 53716. 56313. 335. o
1506 1 2 2 18 53716. 56313. 335. o
1507 3 -2 -2 18 53772. 54318. 377. o
1507 2 2 2 18 53772. 54318. 377. o
1507 1 2 2 -18 53772. 54318. 377. o
1508 3 -3 -2 -18 133. 284. 255. <
1508 1 3 2 18 133. 284. 255. <
1509 3 -3 -2 18 136. 350. 227. <
1509 1 3 2 -18 136. 350. 227. <
1510 3 -4 -2 -18 4545. 4764. 273. o
1510 2 2 4 -18 4545. 4764. 273. o
1510 1 4 2 18 4545. 4764. 273. o
1511 3 -4 -2 18 4581. 4716. 245. o
1511 2 2 4 18 4581. 4716. 245. o
1511 1 4 2 -18 4581. 4716. 245. o
1512 3 -5 -2 -18 179. 236. 284. <
1512 1 5 2 18 179. 236. 284. <
1513 3 -5 -2 18 178. 293. 255. <
1513 1 5 2 -18 178. 293. 255. <
1514 3 -6 -2 -18 29168. 29886. 343. o
1514 2 2 6 -18 29168. 29886. 343. o
1514 1 6 2 18 29168. 29886. 343. o
1515 3 -6 -2 18 29165. 30661. 334. o
1515 2 2 6 18 29165. 30661. 334. o
1515 1 6 2 -18 29165. 30661. 334. o
1516 3 -7 -2 -18 6. 95. 255. <
1516 1 7 2 18 6. 95. 255. <
1517 3 -7 -2 18 6. -104. 312. <
1517 1 7 2 -18 6. -104. 312. <
1518 3 -8 -2 -18 231. 227. 331. <
1518 2 2 8 -18 231. 227. 331. <
1518 1 8 2 18 231. 227. 331. <
1519 3 -8 -2 18 243. 331. 359. <
1519 2 2 8 18 243. 331. 359. <
1519 1 8 2 -18 243. 331. 359. <
1520 3 -9 -2 -18 47. 397. 340. <
1520 1 9 2 18 47. 397. 340. <
1521 3 -9 -2 18 47. -161. 340. <
1521 1 9 2 -18 47. -161. 340. <
1522 3 0 -4 -18 69974. 71965. 430. o
1522 2 4 0 -18 69974. 71965. 430. o
1522 1 0 4 18 69974. 71965. 430. o
1523 3 -1 -4 -18 166. 652. 236. o
1523 1 1 4 18 166. 652. 236. o
1524 3 -2 -4 -18 1146. 1096. 302. o
1524 2 4 2 -18 1146. 1096. 302. o
1524 1 2 4 18 1146. 1096. 302. o
1525 3 -2 -4 18 1116. 1011. 359. o
1525 2 4 2 18 1116. 1011. 359. o
1525 1 2 4 -18 1116. 1011. 359. o
1526 3 -3 -4 -18 273. 302. 284. <
1526 1 3 4 18 273. 302. 284. <
1527 3 -3 -4 18 272. 312. 255. <
1527 1 3 4 -18 272. 312. 255. <
1528 3 -4 -4 -18 44578. 45056. 382. o
1528 2 4 4 -18 44578. 45056. 382. o
1528 1 4 4 18 44578. 45056. 382. o
1529 3 -4 -4 18 44562. 45642. 373. o
1529 2 4 4 18 44562. 45642. 373. o
1529 1 4 4 -18 44562. 45642. 373. o
1530 3 -5 -4 -18 51. 227. 255. <
1530 1 5 4 18 51. 227. 255. <
1531 3 -5 -4 18 51. -9. 284. <
1531 1 5 4 -18 51. -9. 284. <
1532 3 -6 -4 -18 57. 265. 284. <
1532 2 4 6 -18 57. 265. 284. <
1532 1 6 4 18 57. 265. 284. <
1533 3 -6 -4 18 64. -9. 302. <
1533 2 4 6 18 64. -9. 302. <
1533 1 6 4 -18 64. -9. 302. <
1534 3 -7 -4 -18 352. 595. 340. <
1534 1 7 4 18 352. 595. 340. <
1535 3 -7 -4 18 352. 832. 340. o
1535 1 7 4 -18 352. 832. 340. o
1536 3 -8 -4 -18 11445. 11011. 363. o
1536 2 4 8 -18 11445. 11011. 363. o
1536 1 8 4 18 11445. 11011. 363. o
1537 3 -8 -4 18 11441. 11900. 384. o
1537 2 4 8 18 11441. 11900. 384. o
1537 1 8 4 -18 11441. 11900. 384. o
1538 3 0 -6 -18 1810. 1890. 302. o
1538 2 6 0 -18 1810. 1890. 302. o
1538 1 0 6 18 1810. 1890. 302. o
1539 3 -1 -6 -18 322. 104. 227. <
1539 1 1 6 18 322. 104. 227. <
1540 3 -2 -6 -18 49502. 50368. 367. o
1540 2 6 2 -18 49502. 50368. 367. o
1540 1 2 6 18 49502. 50368. 367. o
1541 3 -2 -6 18 49447. 51993. 586. o
1541 2 6 2 18 49447. 51993. 586. o
1541 1 2 6 -18 49447. 51993. 586. o
1542 3 -3 -6 -18 111. 76. 321. <
1542 1 3 6 18 111. 76. 321. <
1543 3 -3 -6 18 110. 208. 463. <
1543 1 3 6 -18 110. 208. 463. <
1544 3 -4 -6 -18 652. 832. 293. o
1544 2 6 4 -18 652. 832. 293. o
1544 1 4 6 18 652. 832. 293. o
1545 3 -4 -6 18 644. 898. 350. o
1545 2 6 4 18 644. 898. 350. o
1545 1 4 6 -18 644. 898. 350. o
1546 3 -5 -6 -18 625. 898. 302. o
1546 1 5 6 18 625. 898. 302. o
1547 3 -5 -6 18 624. 907. 387. o
1547 1 5 6 -18 624. 907. 387. o
1548 3 -6 -6 -18 17406. 16871. 347. o
1548 2 6 6 -18 17406. 16871. 347. o
1548 1 6 6 18 17406. 16871. 347. o
1549 3 -6 -6 18 17394. 17353. 435. o
1549 2 6 6 18 17394. 17353. 435. o
1549 1 6 6 -18 17394. 17353. 435. o
1550 3 -7 -6 -18 26. -9. 321. <
1550 1 7 6 18 26. -9. 321. <
1551 3 -7 -6 18 26. 170. 388. <
1551 1 7 6 -18 26. 170. 388. <
1552 3 0 -8 -18 29026. 28270. 466. o
1552 2 8 0 -18 29026. 28270. 466. o
1552 1 0 8 18 29026. 28270. 466. o
1553 3 -1 -8 -18 250. 369. 265. <
1553 1 1 8 18 250. 369. 265. <
1554 3 -2 -8 -18 2316. 2259. 265. o
1554 2 8 2 -18 2316. 2259. 265. o
1554 1 2 8 18 2316. 2259. 265. o
1555 3 -3 -8 -18 482. 690. 331. o
1555 1 3 8 18 482. 690. 331. o
1556 3 -4 -8 -18 16587. 16720. 386. o
1556 2 8 4 -18 16587. 16720. 386. o
1556 1 4 8 18 16587. 16720. 386. o
1557 3 -4 -8 18 16570. 16692. 670. o
1557 2 8 4 18 16570. 16692. 670. o
1557 1 4 8 -18 16570. 16692. 670. o
1558 3 -5 -8 -18 23. 19. 340. <
1558 1 5 8 18 23. 19. 340. <
1559 3 -5 -8 18 23. 312. 614. <
1559 1 5 8 -18 23. 312. 614. <
1560 3 0 -1 -19 595. 907. 217. o
1560 1 0 1 19 595. 907. 217. o
1561 3 -1 -1 -19 14544. 16295. 246. o
1561 2 1 1 -19 14544. 16295. 246. o
1561 1 1 1 19 14544. 16295. 246. o
1562 3 -1 -1 19 14531. 16191. 369. o
1562 2 1 1 19 14531. 16191. 369. o
1562 1 1 1 -19 14531. 16191. 369. o
1563 3 -2 -1 -19 2588. 2684. 236. o
1563 1 2 1 19 2588. 2684. 236. o
1564 3 -2 -1 19 2593. 2637. 227. o
1564 1 2 1 -19 2593. 2637. 227. o
1565 3 -3 -1 -19 1303. 1361. 246. o
1565 2 1 3 -19 1303. 1361. 246. o
1565 1 3 1 19 1303. 1361. 246. o
1566 3 -3 -1 19 1363. 1248. 208. o
1566 2 1 3 19 1363. 1248. 208. o
1566 1 3 1 -19 1363. 1248. 208. o
1567 3 -4 -1 -19 152. -38. 236. <
1567 1 4 1 19 152. -38. 236. <
1568 3 -4 -1 19 154. 350. 217. <
1568 1 4 1 -19 154. 350. 217. <
1569 3 -5 -1 -19 1233. 907. 256. o
1569 2 1 5 -19 1233. 907. 256. o
1569 1 5 1 19 1233. 907. 256. o
1570 3 -5 -1 19 1256. 775. 227. o
1570 2 1 5 19 1256. 775. 227. o
1570 1 5 1 -19 1256. 775. 227. o
1571 3 -6 -1 -19 342. 397. 274. <
1571 1 6 1 19 342. 397. 274. <
1572 3 -6 -1 19 341. 95. 274. <
1572 1 6 1 -19 341. 95. 274. <
1573 3 -7 -1 -19 5038. 5208. 264. o
1573 2 1 7 -19 5038. 5208. 264. o
1573 1 7 1 19 5038. 5208. 264. o
1574 3 -7 -1 19 5054. 5813. 299. o
1574 2 1 7 19 5054. 5813. 299. o
1574 1 7 1 -19 5054. 5813. 299. o
1575 3 -8 -1 -19 167. -95. 321. <
1575 1 8 1 19 167. -95. 321. <
1576 3 -8 -1 19 167. 132. 321. <
1576 1 8 1 -19 167. 132. 321. <
1577 3 -9 -1 -19 2196. 2750. 349. o
1577 2 1 9 -19 2196. 2750. 349. o
1577 1 9 1 19 2196. 2750. 349. o
1578 3 -9 -1 19 2197. 2902. 358. o
1578 2 1 9 19 2197. 2902. 358. o
1578 1 9 1 -19 2197. 2902. 358. o
1579 3 0 -3 -19 10051. 9924. 379. o
1579 1 0 3 19 10051. 9924. 379. o
1580 3 -1 -3 -19 626. 614. 255. o
1580 2 3 1 -19 626. 614. 255. o
1580 1 1 3 19 626. 614. 255. o
1581 3 -1 -3 19 662. 841. 350. o
1581 2 3 1 19 662. 841. 350. o
1581 1 1 3 -19 662. 841. 350. o
1582 3 -2 -3 -19 2325. 2665. 330. o
1582 1 2 3 19 2325. 2665. 330. o
1583 3 -2 -3 19 2334. 2722. 254. o
1583 1 2 3 -19 2334. 2722. 254. o
1584 3 -3 -3 -19 517. 369. 293. <
1584 2 3 3 -19 517. 369. 293. <
1584 1 3 3 19 517. 369. 293. <
1585 3 -3 -3 19 517. 444. 246. <
1585 2 3 3 19 517. 444. 246. <
1585 1 3 3 -19 517. 444. 246. <
1586 3 -4 -3 -19 1479. 1333. 274. o
1586 1 4 3 19 1479. 1333. 274. o
1587 3 -4 -3 19 1474. 1342. 246. o
1587 1 4 3 -19 1474. 1342. 246. o
1588 3 -5 -3 -19 8335. 8421. 292. o
1588 2 3 5 -19 8335. 8421. 292. o
1588 1 5 3 19 8335. 8421. 292. o
1589 3 -5 -3 19 8369. 8506. 292. o
1589 2 3 5 19 8369. 8506. 292. o
1589 1 5 3 -19 8369. 8506. 292. o
1590 3 -6 -3 -19 109. 246. 302. <
1590 1 6 3 19 109. 246. 302. <
1591 3 -6 -3 19 110. 132. 293. <
1591 1 6 3 -19 110. 132. 293. <
1592 3 -7 -3 -19 2149. 2164. 312. o
1592 2 3 7 -19 2149. 2164. 312. o
1592 1 7 3 19 2149. 2164. 312. o
1593 3 -7 -3 19 2143. 1824. 312. o
1593 2 3 7 19 2143. 1824. 312. o
1593 1 7 3 -19 2143. 1824. 312. o
1594 3 -8 -3 -19 122. -132. 284. <
1594 1 8 3 19 122. -132. 284. <
1595 3 -8 -3 19 121. 104. 331. <
1595 1 8 3 -19 121. 104. 331. <
1596 3 -9 -3 -19 3900. 3582. 351. o
1596 2 3 9 -19 3900. 3582. 351. o
1596 1 9 3 19 3900. 3582. 351. o
1597 3 -9 -3 19 3905. 3951. 387. o
1597 2 3 9 19 3905. 3951. 387. o
1597 1 9 3 -19 3905. 3951. 387. o
1598 3 0 -5 -19 2040. 1560. 294. o
1598 1 0 5 19 2040. 1560. 294. o
1599 3 -1 -5 -19 13790. 13393. 242. o
1599 2 5 1 -19 13790. 13393. 242. o
1599 1 1 5 19 13790. 13393. 242. o
1600 3 -2 -5 -19 2648. 2164. 341. o
1600 1 2 5 19 2648. 2164. 341. o
1601 3 -2 -5 19 2642. 2193. 549. o
1601 1 2 5 -19 2642. 2193. 549. o
1602 3 -3 -5 -19 18034. 19206. 362. o
1602 2 5 3 -19 18034. 19206. 362. o
1602 1 3 5 19 18034. 19206. 362. o
1603 3 -3 -5 19 18041. 18412. 373. o
1603 2 5 3 19 18041. 18412. 373. o
1603 1 3 5 -19 18041. 18412. 373. o
1604 3 -4 -5 -19 42. 170. 284. <
1604 1 4 5 19 42. 170. 284. <
1605 3 -4 -5 19 43. 113. 302. <
1605 1 4 5 -19 43. 113. 302. <
1606 3 -5 -5 -19 3610. 3128. 304. o
1606 2 5 5 -19 3610. 3128. 304. o
1606 1 5 5 19 3610. 3128. 304. o
1607 3 -5 -5 19 3588. 3214. 332. o
1607 2 5 5 19 3588. 3214. 332. o
1607 1 5 5 -19 3588. 3214. 332. o
1608 3 -6 -5 -19 109. 274. 312. <
1608 1 6 5 19 109. 274. 312. <
1609 3 -6 -5 19 108. 142. 350. <
1609 1 6 5 -19 108. 142. 350. <
1610 3 -7 -5 -19 7929. 7722. 351. o
1610 2 5 7 -19 7929. 7722. 351. o
1610 1 7 5 19 7929. 7722. 351. o
1611 3 -7 -5 19 7939. 7807. 398. o
1611 2 5 7 19 7939. 7807. 398. o
1611 1 7 5 -19 7939. 7807. 398. o
1612 3 -8 -5 -19 81. 312. 350. <
1612 1 8 5 19 81. 312. 350. <
1613 3 -8 -5 19 81. 217. 388. <
1613 1 8 5 -19 81. 217. 388. <
1614 3 0 -7 -19 281. -9. 331. <
1614 1 0 7 19 281. -9. 331. <
1615 3 -1 -7 -19 22355. 21937. 283. o
1615 2 7 1 -19 22355. 21937. 283. o
1615 1 1 7 19 22355. 21937. 283. o
1616 3 -2 -7 -19 22. 321. 236. <
1616 1 2 7 19 22. 321. 236. <
1617 3 -3 -7 -19 9107. 8724. 315. o
1617 2 7 3 -19 9107. 8724. 315. o
1617 1 3 7 19 9107. 8724. 315. o
1618 3 -3 -7 19 9079. 8431. 636. o
1618 2 7 3 19 9079. 8431. 636. o
1618 1 3 7 -19 9079. 8431. 636. o
1619 3 -4 -7 -19 63. 0. 321. <
1619 1 4 7 19 63. 0. 321. <
1620 3 -4 -7 19 63. 151. 454. <
1620 1 4 7 -19 63. 151. 454. <
1621 3 -5 -7 -19 11218. 11247. 349. o
1621 2 7 5 -19 11218. 11247. 349. o
1621 1 5 7 19 11218. 11247. 349. o
1622 3 -5 -7 19 11221. 11767. 469. o
1622 2 7 5 19 11221. 11767. 469. o
1622 1 5 7 -19 11221. 11767. 469. o
1623 3 -6 -7 -19 84. 265. 350. <
1623 1 6 7 19 84. 265. 350. <
1624 3 -6 -7 19 84. 180. 482. <
1624 1 6 7 -19 84. 180. 482. <
1625 3 0 -9 -19 303. 312. 378. <
1625 1 0 9 19 303. 312. 378. <
1626 3 -1 -9 -19 8507. 8573. 274. o
1626 2 9 1 -19 8507. 8573. 274. o
1626 1 1 9 19 8507. 8573. 274. o
1627 3 -2 -9 -19 164. 38. 274. <
1627 1 2 9 19 164. 38. 274. <
1628 3 -3 -9 -19 8734. 8478. 304. o
1628 2 9 3 -19 8734. 8478. 304. o
1628 1 3 9 19 8734. 8478. 304. o
1629 3 0 0 -20 4252. 2278. 466. o
1629 2 0 0 -20 4252. 2278. 466. o
1629 1 0 0 20 4252. 2278. 466. o
1630 3 -2 0 -20 46240. 49026. 446. o
1630 2 0 2 -20 46240. 49026. 446. o
1630 1 2 0 20 46240. 49026. 446. o
1631 3 -2 0 20 46246. 47721. 462. o
1631 2 0 2 20 46246. 47721. 462. o
1631 1 2 0 -20 46246. 47721. 462. o
1632 3 -4 0 -20 9696. 10435. 363. o
1632 2 0 4 -20 9696. 10435. 363. o
1632 1 4 0 20 9696. 10435. 363. o
1633 3 -4 0 20 9742. 9867. 339. o
1633 2 0 4 20 9742. 9867. 339. o
1633 1 4 0 -20 9742. 9867. 339. o
1634 3 -6 0 -20 1774. 1437. 416. o
1634 2 0 6 -20 1774. 1437. 416. o
1634 1 6 0 20 1774. 1437. 416. o
1635 3 -6 0 20 1791. 1370. 369. o
1635 2 0 6 20 1791. 1370. 369. o
1635 1 6 0 -20 1791. 1370. 369. o
1636 3 -8 0 -20 5744. 5605. 482. o
1636 2 0 8 -20 5744. 5605. 482. o
1636 1 8 0 20 5744. 5605. 482. o
1637 3 -8 0 20 5741. 6380. 489. o
1637 2 0 8 20 5741. 6380. 489. o
1637 1 8 0 -20 5741. 6380. 489. o
1638 3 0 -2 -20 38683. 39621. 351. o
1638 2 2 0 -20 38683. 39621. 351. o
1638 1 0 2 20 38683. 39621. 351. o
1639 3 -1 -2 -20 1402. 614. 199. o
1639 1 1 2 20 1402. 614. 199. o
1640 3 -1 -2 20 1373. 577. 303. <
1640 1 1 2 -20 1373. 577. 303. <
1641 3 -2 -2 -20 10180. 10548. 289. o
1641 2 2 2 -20 10180. 10548. 289. o
1641 1 2 2 20 10180. 10548. 289. o
1642 3 -2 -2 20 10230. 9886. 277. o
1642 2 2 2 20 10230. 9886. 277. o
1642 1 2 2 -20 10230. 9886. 277. o
1643 3 -3 -2 -20 298. 9. 255. <
1643 1 3 2 20 298. 9. 255. <
1644 3 -3 -2 20 300. 47. 227. <
1644 1 3 2 -20 300. 47. 227. <
1645 3 -4 -2 -20 7562. 7939. 300. o
1645 2 2 4 -20 7562. 7939. 300. o
1645 1 4 2 20 7562. 7939. 300. o
1646 3 -4 -2 20 7591. 7731. 254. o
1646 2 2 4 20 7591. 7731. 254. o
1646 1 4 2 -20 7591. 7731. 254. o
1647 3 -5 -2 -20 104. 76. 302. <
1647 1 5 2 20 104. 76. 302. <
1648 3 -5 -2 20 103. 180. 236. <
1648 1 5 2 -20 103. 180. 236. <
1649 3 -6 -2 -20 10201. 10605. 327. o
1649 2 2 6 -20 10201. 10605. 327. o
1649 1 6 2 20 10201. 10605. 327. o
1650 3 -6 -2 20 10204. 10605. 308. o
1650 2 2 6 20 10204. 10605. 308. o
1650 1 6 2 -20 10204. 10605. 308. o
1651 3 -7 -2 -20 225. 208. 302. <
1651 1 7 2 20 225. 208. 302. <
1652 3 -7 -2 20 225. 312. 293. <
1652 1 7 2 -20 225. 312. 293. <
1653 3 -8 -2 -20 116. 359. 302. <
1653 2 2 8 -20 116. 359. 302. <
1653 1 8 2 20 116. 359. 302. <
1654 3 -8 -2 20 124. 397. 331. <
1654 2 2 8 20 124. 397. 331. <
1654 1 8 2 -20 124. 397. 331. <
1655 3 -9 -2 -20 18. 265. 340. <
1655 1 9 2 20 18. 265. 340. <
1656 3 -9 -2 20 18. 265. 359. <
1656 1 9 2 -20 18. 265. 359. <
1657 3 0 -4 -20 22973. 23638. 338. o
1657 2 4 0 -20 22973. 23638. 338. o
1657 1 0 4 20 22973. 23638. 338. o
1658 3 -1 -4 -20 525. 293. 227. <
1658 1 1 4 20 525. 293. 227. <
1659 3 -2 -4 -20 2634. 2817. 330. o
1659 2 4 2 -20 2634. 2817. 330. o
1659 1 2 4 20 2634. 2817. 330. o
1660 3 -2 -4 20 2661. 2665. 350. o
1660 2 4 2 20 2661. 2665. 350. o
1660 1 2 4 -20 2661. 2665. 350. o
1661 3 -3 -4 -20 483. 350. 284. <
1661 1 3 4 20 483. 350. 284. <
1662 3 -3 -4 20 479. 397. 246. <
1662 1 3 4 -20 479. 397. 246. <
1663 3 -4 -4 -20 16357. 16720. 326. o
1663 2 4 4 -20 16357. 16720. 326. o
1663 1 4 4 20 16357. 16720. 326. o
1664 3 -4 -4 20 16356. 16843. 305. o
1664 2 4 4 20 16356. 16843. 305. o
1664 1 4 4 -20 16356. 16843. 305. o
1665 3 -5 -4 -20 689. 416. 274. <
1665 1 5 4 20 689. 416. 274. <
1666 3 -5 -4 20 691. 548. 284. <
1666 1 5 4 -20 691. 548. 284. <
1667 3 -6 -4 -20 65. 227. 293. <
1667 2 4 6 -20 65. 227. 293. <
1667 1 6 4 20 65. 227. 293. <
1668 3 -6 -4 20 70. 312. 312. <
1668 2 4 6 20 70. 312. 312. <
1668 1 6 4 -20 70. 312. 312. <
1669 3 -7 -4 -20 89. 0. 359. <
1669 1 7 4 20 89. 0. 359. <
1670 3 -7 -4 20 89. 227. 350. <
1670 1 7 4 -20 89. 227. 350. <
1671 3 -8 -4 -20 4740. 4490. 388. o
1671 2 4 8 -20 4740. 4490. 388. o
1671 1 8 4 20 4740. 4490. 388. o
1672 3 -8 -4 20 4737. 4811. 397. o
1672 2 4 8 20 4737. 4811. 397. o
1672 1 8 4 -20 4737. 4811. 397. o
1673 3 0 -6 -20 955. 662. 303. o
1673 2 6 0 -20 955. 662. 303. o
1673 1 0 6 20 955. 662. 303. o
1674 3 -1 -6 -20 26. 255. 236. <
1674 1 1 6 20 26. 255. 236. <
1675 3 -2 -6 -20 22736. 23771. 341. o
1675 2 6 2 -20 22736. 23771. 341. o
1675 1 2 6 20 22736. 23771. 341. o
1676 3 -3 -6 -20 500. 444. 331. <
1676 1 3 6 20 500. 444. 331. <
1677 3 -3 -6 20 500. 331. 463. <
1677 1 3 6 -20 500. 331. 463. <
1678 3 -4 -6 -20 249. 284. 302. <
1678 2 6 4 -20 249. 284. 302. <
1678 1 4 6 20 249. 284. 302. <
1679 3 -4 -6 20 249. 454. 340. <
1679 2 6 4 20 249. 454. 340. <
1679 1 4 6 -20 249. 454. 340. <
1680 3 -5 -6 -20 117. 284. 312. <
1680 1 5 6 20 117. 284. 312. <
1681 3 -5 -6 20 117. 340. 340. <
1681 1 5 6 -20 117. 340. 340. <
1682 3 -6 -6 -20 7550. 7457. 331. o
1682 2 6 6 -20 7550. 7457. 331. o
1682 1 6 6 20 7550. 7457. 331. o
1683 3 -6 -6 20 7548. 8289. 422. o
1683 2 6 6 20 7548. 8289. 422. o
1683 1 6 6 -20 7548. 8289. 422. o
1684 3 -7 -6 -20 592. 624. 331. <
1684 1 7 6 20 592. 624. 331. <
1685 3 -7 -6 20 592. 388. 397. <
1685 1 7 6 -20 592. 388. 397. <
1686 3 0 -8 -20 14863. 14726. 427. o
1686 2 8 0 -20 14863. 14726. 427. o
1686 1 0 8 20 14863. 14726. 427. o
1687 3 -1 -8 -20 336. 340. 246. <
1687 1 1 8 20 336. 340. 246. <
1688 3 -2 -8 -20 1562. 1512. 274. o
1688 2 8 2 -20 1562. 1512. 274. o
1688 1 2 8 20 1562. 1512. 274. o
1689 3 -3 -8 -20 53. -76. 284. <
1689 1 3 8 20 53. -76. 284. <
1690 3 -4 -8 -20 7821. 7769. 359. o
1690 2 8 4 -20 7821. 7769. 359. o
1690 1 4 8 20 7821. 7769. 359. o
1691 3 -4 -8 20 7814. 7448. 672. o
1691 2 8 4 20 7814. 7448. 672. o
1691 1 4 8 -20 7814. 7448. 672. o
1692 3 -5 -8 -20 555. 699. 359. <
1692 1 5 8 20 555. 699. 359. <
1693 3 -5 -8 20 555. 614. 567. <
1693 1 5 8 -20 555. 614. 567. <
1694 3 0 -1 -21 62542. 61606. 443. o
1694 1 0 1 21 62542. 61606. 443. o
1695 3 -1 -1 -21 419. 388. 170. o
1695 2 1 1 -21 419. 388. 170. o
1695 1 1 1 21 419. 388. 170. o
1696 3 -1 -1 21 425. 586. 312. <
1696 2 1 1 21 425. 586. 312. <
1696 1 1 1 -21 425. 586. 312. <
1697 3 -2 -1 -21 21829. 21748. 295. o
1697 1 2 1 21 21829. 21748. 295. o
1698 3 -2 -1 21 21891. 21578. 299. o
1698 1 2 1 -21 21891. 21578. 299. o
1699 3 -3 -1 -21 324. 180. 236. <
1699 2 1 3 -21 324. 180. 236. <
1699 1 3 1 21 324. 180. 236. <
1700 3 -3 -1 21 332. 255. 199. <
1700 2 1 3 21 332. 255. 199. <
1700 1 3 1 -21 332. 255. 199. <
1701 3 -4 -1 -21 27008. 27533. 299. o
1701 1 4 1 21 27008. 27533. 299. o
1702 3 -4 -1 21 26984. 26852. 306. o
1702 1 4 1 -21 26984. 26852. 306. o
1703 3 -5 -1 -21 18. -19. 236. <
1703 2 1 5 -21 18. -19. 236. <
1703 1 5 1 21 18. -19. 236. <
1704 3 -5 -1 21 20. 350. 246. <
1704 2 1 5 21 20. 350. 246. <
1704 1 5 1 -21 20. 350. 246. <
1705 3 -6 -1 -21 7024. 7684. 308. o
1705 1 6 1 21 7024. 7684. 308. o
1706 3 -6 -1 21 7027. 7212. 301. o
1706 1 6 1 -21 7027. 7212. 301. o
1707 3 -7 -1 -21 111. 170. 293. <
1707 2 1 7 -21 111. 170. 293. <
1707 1 7 1 21 111. 170. 293. <
1708 3 -7 -1 21 113. 321. 283. <
1708 2 1 7 21 113. 321. 283. <
1708 1 7 1 -21 113. 321. 283. <
1709 3 -8 -1 -21 3282. 3062. 322. o
1709 1 8 1 21 3282. 3062. 322. o
1710 3 -8 -1 21 3282. 3308. 350. o
1710 1 8 1 -21 3282. 3308. 350. o
1711 3 -9 -1 -21 29. 284. 350. <
1711 2 1 9 -21 29. 284. 350. <
1711 1 9 1 21 29. 284. 350. <
1712 3 -9 -1 21 29. 189. 378. <
1712 2 1 9 21 29. 189. 378. <
1712 1 9 1 -21 29. 189. 378. <
1713 3 0 -3 -21 5200. 5009. 313. o
1713 1 0 3 21 5200. 5009. 313. o
1714 3 -1 -3 -21 425. 198. 217. <
1714 2 3 1 -21 425. 198. 217. <
1714 1 1 3 21 425. 198. 217. <
1715 3 -2 -3 -21 57680. 56133. 537. o
1715 1 2 3 21 57680. 56133. 537. o
1716 3 -2 -3 21 57552. 55150. 503. o
1716 1 2 3 -21 57552. 55150. 503. o
1717 3 -3 -3 -21 24. 57. 293. <
1717 2 3 3 -21 24. 57. 293. <
1717 1 3 3 21 24. 57. 293. <
1718 3 -3 -3 21 26. -19. 236. <
1718 2 3 3 21 26. -19. 236. <
1718 1 3 3 -21 26. -19. 236. <
1719 3 -4 -3 -21 5336. 5756. 281. o
1719 1 4 3 21 5336. 5756. 281. o
1720 3 -4 -3 21 5352. 5179. 266. o
1720 1 4 3 -21 5352. 5179. 266. o
1721 3 -5 -3 -21 430. 510. 265. <
1721 2 3 5 -21 430. 510. 265. <
1721 1 5 3 21 430. 510. 265. <
1722 3 -5 -3 21 437. 473. 265. <
1722 2 3 5 21 437. 473. 265. <
1722 1 5 3 -21 437. 473. 265. <
1723 3 -6 -3 -21 10903. 10595. 324. o
1723 1 6 3 21 10903. 10595. 324. o
1724 3 -6 -3 21 10897. 10331. 308. o
1724 1 6 3 -21 10897. 10331. 308. o
1725 3 -7 -3 -21 29. 123. 293. <
1725 2 3 7 -21 29. 123. 293. <
1725 1 7 3 21 29. 123. 293. <
1726 3 -7 -3 21 27. 331. 331. <
1726 2 3 7 21 27. 331. 331. <
1726 1 7 3 -21 27. 331. 331. <
1727 3 -8 -3 -21 1726. 2268. 311. o
1727 1 8 3 21 1726. 2268. 311. o
1728 3 -8 -3 21 1726. 1834. 350. o
1728 1 8 3 -21 1726. 1834. 350. o
1729 3 0 -5 -21 43050. 42277. 454. o
1729 1 0 5 21 43050. 42277. 454. o
1730 3 -1 -5 -21 38. 113. 208. <
1730 2 5 1 -21 38. 113. 208. <
1730 1 1 5 21 38. 113. 208. <
1731 3 -2 -5 -21 1592. 1446. 284. o
1731 1 2 5 21 1592. 1446. 284. o
1732 3 -2 -5 21 1597. 1645. 406. o
1732 1 2 5 -21 1597. 1645. 406. o
1733 3 -3 -5 -21 506. 643. 331. <
1733 2 5 3 -21 506. 643. 331. <
1733 1 3 5 21 506. 643. 331. <
1734 3 -3 -5 21 515. 577. 312. <
1734 2 5 3 21 515. 577. 312. <
1734 1 3 5 -21 515. 577. 312. <
1735 3 -4 -5 -21 18304. 17618. 377. o
1735 1 4 5 21 18304. 17618. 377. o
1736 3 -4 -5 21 18292. 17334. 372. o
1736 1 4 5 -21 18292. 17334. 372. o
1737 3 -5 -5 -21 78. 180. 293. <
1737 2 5 5 -21 78. 180. 293. <
1737 1 5 5 21 78. 180. 293. <
1738 3 -5 -5 21 74. 19. 302. <
1738 2 5 5 21 74. 19. 302. <
1738 1 5 5 -21 74. 19. 302. <
1739 3 -6 -5 -21 1919. 1758. 331. o
1739 1 6 5 21 1919. 1758. 331. o
1740 3 -6 -5 21 1919. 1749. 350. o
1740 1 6 5 -21 1919. 1749. 350. o
1741 3 -7 -5 -21 498. 586. 331. <
1741 2 5 7 -21 498. 586. 331. <
1741 1 7 5 21 498. 586. 331. <
1742 3 -7 -5 21 501. 709. 378. <
1742 2 5 7 21 501. 709. 378. <
1742 1 7 5 -21 501. 709. 378. <
1743 3 -8 -5 -21 2348. 1824. 351. o
1743 1 8 5 21 2348. 1824. 351. o
1744 3 -8 -5 21 2349. 2722. 415. o
1744 1 8 5 -21 2349. 2722. 415. o
1745 3 0 -7 -21 781. 1125. 312. o
1745 1 0 7 21 781. 1125. 312. o
1746 3 -1 -7 -21 190. 643. 227. o
1746 2 7 1 -21 190. 643. 227. o
1746 1 1 7 21 190. 643. 227. o
1747 3 -2 -7 -21 11598. 10850. 282. o
1747 1 2 7 21 11598. 10850. 282. o
1748 3 -3 -7 -21 51. 104. 302. <
1748 2 7 3 -21 51. 104. 302. <
1748 1 3 7 21 51. 104. 302. <
1749 3 -3 -7 21 49. 766. 501. <
1749 2 7 3 21 49. 766. 501. <
1749 1 3 7 -21 49. 766. 501. <
1750 3 -4 -7 -21 1154. 1389. 368. o
1750 1 4 7 21 1154. 1389. 368. o
1751 3 -4 -7 21 1153. 1267. 501. o
1751 1 4 7 -21 1153. 1267. 501. o
1752 3 -5 -7 -21 563. 766. 340. o
1752 2 7 5 -21 563. 766. 340. o
1752 1 5 7 21 563. 766. 340. o
1753 3 -5 -7 21 565. 870. 406. o
1753 2 7 5 21 565. 870. 406. o
1753 1 5 7 -21 565. 870. 406. o
1754 3 -6 -7 -21 3239. 2835. 388. o
1754 1 6 7 21 3239. 2835. 388. o
1755 3 -6 -7 21 3239. 3431. 472. o
1755 1 6 7 -21 3239. 3431. 472. o
1756 3 0 -9 -21 2980. 2883. 416. o
1756 1 0 9 21 2980. 2883. 416. o
1757 3 -1 -9 -21 105. 359. 293. <
1757 2 9 1 -21 105. 359. 293. <
1757 1 1 9 21 105. 359. 293. <
1758 3 -2 -9 -21 623. 860. 283. o
1758 1 2 9 21 623. 860. 283. o
1759 3 -3 -9 -21 316. 737. 312. o
1759 2 9 3 -21 316. 737. 312. o
1759 1 3 9 21 316. 737. 312. o
1760 3 0 0 -22 2327. 1096. 445. o
1760 2 0 0 -22 2327. 1096. 445. o
1760 1 0 0 22 2327. 1096. 445. o
1761 3 -2 0 -22 615. 19. 293. <
1761 2 0 2 -22 615. 19. 293. <
1761 1 2 0 22 615. 19. 293. <
1762 3 -2 0 22 625. 236. 293. <
1762 2 0 2 22 625. 236. 293. <
1762 1 2 0 -22 625. 236. 293. <
1763 3 -4 0 -22 518. 860. 321. o
1763 2 0 4 -22 518. 860. 321. o
1763 1 4 0 22 518. 860. 321. o
1764 3 -4 0 22 512. 624. 340. <
1764 2 0 4 22 512. 624. 340. <
1764 1 4 0 -22 512. 624. 340. <
1765 3 -6 0 -22 1086. 1465. 368. o
1765 2 0 6 -22 1086. 1465. 368. o
1765 1 6 0 22 1086. 1465. 368. o
1766 3 -6 0 22 1086. 1522. 397. o
1766 2 0 6 22 1086. 1522. 397. o
1766 1 6 0 -22 1086. 1522. 397. o
1767 3 -8 0 -22 711. 1701. 500. o
1767 2 0 8 -22 711. 1701. 500. o
1767 1 8 0 22 711. 1701. 500. o
1768 3 -8 0 22 711. 1238. 463. o
1768 2 0 8 22 711. 1238. 463. o
1768 1 8 0 -22 711. 1238. 463. o
1769 3 0 -2 -22 365. 208. 227. <
1769 2 2 0 -22 365. 208. 227. <
1769 1 0 2 22 365. 208. 227. <
1770 3 -1 -2 -22 20044. 22495. 192. o
1770 1 1 2 22 20044. 22495. 192. o
1771 3 -1 -2 22 20048. 21909. 470. o
1771 1 1 2 -22 20048. 21909. 470. o
1772 3 -2 -2 -22 192. 170. 255. <
1772 2 2 2 -22 192. 170. 255. <
1772 1 2 2 22 192. 170. 255. <
1773 3 -2 -2 22 182. 236. 217. <
1773 2 2 2 22 182. 236. 217. <
1773 1 2 2 -22 182. 236. 217. <
1774 3 -3 -2 -22 13085. 13780. 284. o
1774 1 3 2 22 13085. 13780. 284. o
1775 3 -3 -2 22 13087. 13204. 254. o
1775 1 3 2 -22 13087. 13204. 254. o
1776 3 -4 -2 -22 830. 964. 255. o
1776 2 2 4 -22 830. 964. 255. o
1776 1 4 2 22 830. 964. 255. o
1777 3 -4 -2 22 832. 841. 227. o
1777 2 2 4 22 832. 841. 227. o
1777 1 4 2 -22 832. 841. 227. o
1778 3 -5 -2 -22 707. 747. 312. o
1778 1 5 2 22 707. 747. 312. o
1779 3 -5 -2 22 707. 690. 246. o
1779 1 5 2 -22 707. 690. 246. o
1780 3 -6 -2 -22 1168. 1087. 303. o
1780 2 2 6 -22 1168. 1087. 303. o
1780 1 6 2 22 1168. 1087. 303. o
1781 3 -6 -2 22 1164. 1380. 283. o
1781 2 2 6 22 1164. 1380. 283. o
1781 1 6 2 -22 1164. 1380. 283. o
1782 3 -7 -2 -22 939. 784. 303. o
1782 1 7 2 22 939. 784. 303. o
1783 3 -7 -2 22 939. 926. 293. o
1783 1 7 2 -22 939. 926. 293. o
1784 3 -8 -2 -22 531. 822. 293. o
1784 2 2 8 -22 531. 822. 293. o
1784 1 8 2 22 531. 822. 293. o
1785 3 -8 -2 22 530. 1229. 349. o
1785 2 2 8 22 530. 1229. 349. o
1785 1 8 2 -22 530. 1229. 349. o
1786 3 -9 -2 -22 41. 265. 359. <
1786 1 9 2 22 41. 265. 359. <
1787 3 -9 -2 22 40. 189. 388. <
1787 1 9 2 -22 40. 189. 388. <
1788 3 0 -4 -22 3067. 3025. 284. o
1788 2 4 0 -22 3067. 3025. 284. o
1788 1 0 4 22 3067. 3025. 284. o
1789 3 -1 -4 -22 33190. 34687. 219. o
1789 1 1 4 22 33190. 34687. 219. o
1790 3 -2 -4 -22 2430. 2524. 274. o
1790 2 4 2 -22 2430. 2524. 274. o
1790 1 2 4 22 2430. 2524. 274. o
1791 3 -2 -4 22 2428. 2429. 331. o
1791 2 4 2 22 2428. 2429. 331. o
1791 1 2 4 -22 2428. 2429. 331. o
1792 3 -3 -4 -22 8406. 9688. 331. o
1792 1 3 4 22 8406. 9688. 331. o
1793 3 -3 -4 22 8416. 9385. 285. o
1793 1 3 4 -22 8416. 9385. 285. o
1794 3 -4 -4 -22 1966. 1881. 303. o
1794 2 4 4 -22 1966. 1881. 303. o
1794 1 4 4 22 1966. 1881. 303. o
1795 3 -4 -4 22 1958. 1909. 274. o
1795 2 4 4 22 1958. 1909. 274. o
1795 1 4 4 -22 1958. 1909. 274. o
1796 3 -5 -4 -22 7007. 7183. 311. o
1796 1 5 4 22 7007. 7183. 311. o
1797 3 -5 -4 22 7010. 7127. 311. o
1797 1 5 4 -22 7010. 7127. 311. o
1798 3 -6 -4 -22 893. 813. 303. o
1798 2 4 6 -22 893. 813. 303. o
1798 1 6 4 22 893. 813. 303. o
1799 3 -6 -4 22 893. 955. 312. o
1799 2 4 6 22 893. 955. 312. o
1799 1 6 4 -22 893. 955. 312. o
1800 3 -7 -4 -22 41. 369. 321. <
1800 1 7 4 22 41. 369. 321. <
1801 3 -7 -4 22 41. 284. 350. <
1801 1 7 4 -22 41. 284. 350. <
1802 3 -8 -4 -22 428. 463. 378. <
1802 2 4 8 -22 428. 463. 378. <
1802 1 8 4 22 428. 463. 378. <
1803 3 -8 -4 22 427. 558. 387. <
1803 2 4 8 22 427. 558. 387. <
1803 1 8 4 -22 427. 558. 387. <
1804 3 0 -6 -22 4679. 4234. 332. o
1804 2 6 0 -22 4679. 4234. 332. o
1804 1 0 6 22 4679. 4234. 332. o
1805 3 -1 -6 -22 8622. 9253. 239. o
1805 1 1 6 22 8622. 9253. 239. o
1806 3 -2 -6 -22 4073. 3932. 275. o
1806 2 6 2 -22 4073. 3932. 275. o
1806 1 2 6 22 4073. 3932. 275. o
1807 3 -3 -6 -22 8973. 9669. 364. o
1807 1 3 6 22 8973. 9669. 364. o
1808 3 -3 -6 22 8979. 9272. 556. o
1808 1 3 6 -22 8979. 9272. 556. o
1809 3 -4 -6 -22 1556. 1881. 302. o
1809 2 6 4 -22 1556. 1881. 302. o
1809 1 4 6 22 1556. 1881. 302. o
1810 3 -4 -6 22 1558. 1616. 331. o
1810 2 6 4 22 1558. 1616. 331. o
1810 1 4 6 -22 1558. 1616. 331. o
1811 3 -5 -6 -22 24. 246. 302. <
1811 1 5 6 22 24. 246. 302. <
1812 3 -5 -6 22 24. 132. 340. <
1812 1 5 6 -22 24. 132. 340. <
1813 3 -6 -6 -22 693. 548. 359. <
1813 2 6 6 -22 693. 548. 359. <
1813 1 6 6 22 693. 548. 359. <
1814 3 -6 -6 22 692. 633. 416. <
1814 2 6 6 22 692. 633. 416. <
1814 1 6 6 -22 692. 633. 416. <
1815 3 -7 -6 -22 1558. 1522. 350. o
1815 1 7 6 22 1558. 1522. 350. o
1816 3 -7 -6 22 1559. 1456. 454. o
1816 1 7 6 -22 1559. 1456. 454. o
1817 3 0 -8 -22 2687. 2533. 388. o
1817 2 8 0 -22 2687. 2533. 388. o
1817 1 0 8 22 2687. 2533. 388. o
1818 3 -1 -8 -22 1548. 1663. 264. o
1818 1 1 8 22 1548. 1663. 264. o
1819 3 -2 -8 -22 1560. 1399. 255. o
1819 2 8 2 -22 1560. 1399. 255. o
1819 1 2 8 22 1560. 1399. 255. o
1820 3 -3 -8 -22 27. 425. 255. <
1820 1 3 8 22 27. 425. 255. <
1821 3 -4 -8 -22 893. 945. 321. o
1821 2 8 4 -22 893. 945. 321. o
1821 1 4 8 22 893. 945. 321. o
1822 3 -4 -8 22 893. 888. 510. <
1822 2 8 4 22 893. 888. 510. <
1822 1 4 8 -22 893. 888. 510. <
1823 3 0 -1 -23 60827. 60878. 395. o
1823 1 0 1 23 60827. 60878. 395. o
1824 3 -1 -1 -23 7094. 6644. 203. o
1824 2 1 1 -23 7094. 6644. 203. o
1824 1 1 1 23 7094. 6644. 203. o
1825 3 -1 -1 23 7091. 6588. 465. o
1825 2 1 1 23 7091. 6588. 465. o
1825 1 1 1 -23 7091. 6588. 465. o
1826 3 -2 -1 -23 11530. 13308. 241. o
1826 1 2 1 23 11530. 13308. 241. o
1827 3 -2 -1 23 11518. 12864. 237. o
1827 1 2 1 -23 11518. 12864. 237. o
1828 3 -3 -1 -23 8992. 8166. 290. o
1828 2 1 3 -23 8992. 8166. 290. o
1828 1 3 1 23 8992. 8166. 290. o
1829 3 -3 -1 23 8983. 7930. 246. o
1829 2 1 3 23 8983. 7930. 246. o
1829 1 3 1 -23 8983. 7930. 246. o
1830 3 -4 -1 -23 24009. 24763. 335. o
1830 1 4 1 23 24009. 24763. 335. o
1831 3 -4 -1 23 24016. 24243. 298. o
1831 1 4 1 -23 24016. 24243. 298. o
1832 3 -5 -1 -23 7277. 7429. 282. o
1832 2 1 5 -23 7277. 7429. 282. o
1832 1 5 1 23 7277. 7429. 282. o
1833 3 -5 -1 23 7269. 7070. 275. o
1833 2 1 5 23 7269. 7070. 275. o
1833 1 5 1 -23 7269. 7070. 275. o
1834 3 -6 -1 -23 4878. 5274. 291. o
1834 1 6 1 23 4878. 5274. 291. o
1835 3 -6 -1 23 4877. 5567. 280. o
1835 1 6 1 -23 4877. 5567. 280. o
1836 3 -7 -1 -23 4427. 4442. 312. o
1836 2 1 7 -23 4427. 4442. 312. o
1836 1 7 1 23 4427. 4442. 312. o
1837 3 -7 -1 23 4423. 4783. 291. o
1837 2 1 7 23 4423. 4783. 291. o
1837 1 7 1 -23 4423. 4783. 291. o
1838 3 -8 -1 -23 2569. 2628. 331. o
1838 1 8 1 23 2569. 2628. 331. o
1839 3 -8 -1 23 2569. 2646. 359. o
1839 1 8 1 -23 2569. 2646. 359. o
1840 3 -9 -1 -23 1610. 1966. 340. o
1840 2 1 9 -23 1610. 1966. 340. o
1840 1 9 1 23 1610. 1966. 340. o
1841 3 -9 -1 23 1608. 1843. 397. o
1841 2 1 9 23 1608. 1843. 397. o
1841 1 9 1 -23 1608. 1843. 397. o
1842 3 0 -3 -23 634. 388. 274. <
1842 1 0 3 23 634. 388. 274. <
1843 3 -1 -3 -23 11910. 11030. 256. o
1843 2 3 1 -23 11910. 11030. 256. o
1843 1 1 3 23 11910. 11030. 256. o
1844 3 -2 -3 -23 64484. 64299. 507. o
1844 1 2 3 23 64484. 64299. 507. o
1845 3 -2 -3 23 64512. 62693. 593. o
1845 1 2 3 -23 64512. 62693. 593. o
1846 3 -3 -3 -23 9106. 8686. 315. o
1846 2 3 3 -23 9106. 8686. 315. o
1846 1 3 3 23 9106. 8686. 315. o
1847 3 -3 -3 23 9114. 8128. 282. o
1847 2 3 3 23 9114. 8128. 282. o
1847 1 3 3 -23 9114. 8128. 282. o
1848 3 -4 -3 -23 1933. 2174. 311. o
1848 1 4 3 23 1933. 2174. 311. o
1849 3 -4 -3 23 1931. 2042. 255. o
1849 1 4 3 -23 1931. 2042. 255. o
1850 3 -5 -3 -23 7564. 6985. 287. o
1850 2 3 5 -23 7564. 6985. 287. o
1850 1 5 3 23 7564. 6985. 287. o
1851 3 -5 -3 23 7564. 7164. 268. o
1851 2 3 5 23 7564. 7164. 268. o
1851 1 5 3 -23 7564. 7164. 268. o
1852 3 -6 -3 -23 9756. 9660. 341. o
1852 1 6 3 23 9756. 9660. 341. o
1853 3 -6 -3 23 9759. 9461. 324. o
1853 1 6 3 -23 9759. 9461. 324. o
1854 3 -7 -3 -23 2918. 3025. 349. o
1854 2 3 7 -23 2918. 3025. 349. o
1854 1 7 3 23 2918. 3025. 349. o
1855 3 -7 -3 23 2918. 2949. 321. o
1855 2 3 7 23 2918. 2949. 321. o
1855 1 7 3 -23 2918. 2949. 321. o
1856 3 -8 -3 -23 1258. 1654. 340. o
1856 1 8 3 23 1258. 1654. 340. o
1857 3 -8 -3 23 1258. 1607. 368. o
1857 1 8 3 -23 1258. 1607. 368. o
1858 3 0 -5 -23 49474. 48090. 483. o
1858 1 0 5 23 49474. 48090. 483. o
1859 3 -1 -5 -23 11772. 11654. 247. o
1859 2 5 1 -23 11772. 11654. 247. o
1859 1 1 5 23 11772. 11654. 247. o
1860 3 -2 -5 -23 386. 217. 246. <
1860 1 2 5 23 386. 217. 246. <
1861 3 -2 -5 23 388. 217. 473. <
1861 1 2 5 -23 388. 217. 473. <
1862 3 -3 -5 -23 9677. 9196. 381. o
1862 2 5 3 -23 9677. 9196. 381. o
1862 1 3 5 23 9677. 9196. 381. o
1863 3 -3 -5 23 9690. 9168. 447. o
1863 2 5 3 23 9690. 9168. 447. o
1863 1 3 5 -23 9690. 9168. 447. o
1864 3 -4 -5 -23 18321. 18582. 365. o
1864 1 4 5 23 18321. 18582. 365. o
1865 3 -4 -5 23 18326. 17476. 361. o
1865 1 4 5 -23 18326. 17476. 361. o
1866 3 -5 -5 -23 3862. 3800. 312. o
1866 2 5 5 -23 3862. 3800. 312. o
1866 1 5 5 23 3862. 3800. 312. o
1867 3 -5 -5 23 3867. 3478. 341. o
1867 2 5 5 23 3867. 3478. 341. o
1867 1 5 5 -23 3867. 3478. 341. o
1868 3 -6 -5 -23 1237. 1777. 340. o
1868 1 6 5 23 1237. 1777. 340. o
1869 3 -6 -5 23 1237. 1560. 330. o
1869 1 6 5 -23 1237. 1560. 330. o
1870 3 -7 -5 -23 2588. 2779. 340. o
1870 2 5 7 -23 2588. 2779. 340. o
1870 1 7 5 23 2588. 2779. 340. o
1871 3 -7 -5 23 2588. 2987. 387. o
1871 2 5 7 23 2588. 2987. 387. o
1871 1 7 5 -23 2588. 2987. 387. o
1872 3 0 -7 -23 345. 180. 331. <
1872 1 0 7 23 345. 180. 331. <
1873 3 -1 -7 -23 7492. 6928. 259. o
1873 2 7 1 -23 7492. 6928. 259. o
1873 1 1 7 23 7492. 6928. 259. o
1874 3 -2 -7 -23 11266. 10983. 268. o
1874 1 2 7 23 11266. 10983. 268. o
1875 3 -3 -7 -23 4165. 3951. 294. o
1875 2 7 3 -23 4165. 3951. 294. o
1875 1 3 7 23 4165. 3951. 294. o
1876 3 -4 -7 -23 757. 1049. 331. o
1876 1 4 7 23 757. 1049. 331. o
1877 3 -4 -7 23 757. 851. 539. <
1877 1 4 7 -23 757. 851. 539. <
1878 3 -5 -7 -23 2982. 2788. 360. o
1878 2 7 5 -23 2982. 2788. 360. o
1878 1 5 7 23 2982. 2788. 360. o
1879 3 -5 -7 23 2985. 2854. 407. o
1879 2 7 5 23 2985. 2854. 407. o
1879 1 5 7 -23 2985. 2854. 407. o
1880 3 -6 -7 -23 2688. 2646. 388. o
1880 1 6 7 23 2688. 2646. 388. o
1881 3 -6 -7 23 2689. 2609. 435. o
1881 1 6 7 -23 2689. 2609. 435. o
1882 3 0 -9 -23 2106. 2221. 425. o
1882 1 0 9 23 2106. 2221. 425. o
1883 3 -1 -9 -23 2430. 2382. 293. o
1883 2 9 1 -23 2430. 2382. 293. o
1883 1 1 9 23 2430. 2382. 293. o
1884 3 -2 -9 -23 652. 747. 283. o
1884 1 2 9 23 652. 747. 283. o
1885 3 0 0 -24 127470. 135659. 721. o
1885 2 0 0 -24 127470. 135659. 721. o
1885 1 0 0 24 127470. 135659. 721. o
1886 3 -2 0 -24 32248. 34442. 408. o
1886 2 0 2 -24 32248. 34442. 408. o
1886 1 2 0 24 32248. 34442. 408. o
1887 3 -2 0 24 32197. 33591. 416. o
1887 2 0 2 24 32197. 33591. 416. o
1887 1 2 0 -24 32197. 33591. 416. o
1888 3 -4 0 -24 55950. 56861. 523. o
1888 2 0 4 -24 55950. 56861. 523. o
1888 1 4 0 24 55950. 56861. 523. o
1889 3 -4 0 24 55892. 55226. 529. o
1889 2 0 4 24 55892. 55226. 529. o
1889 1 4 0 -24 55892. 55226. 529. o
1890 3 -6 0 -24 6721. 6210. 427. o
1890 2 0 6 -24 6721. 6210. 427. o
1890 1 6 0 24 6721. 6210. 427. o
1891 3 -6 0 24 6719. 6626. 407. o
1891 2 0 6 24 6719. 6626. 407. o
1891 1 6 0 -24 6719. 6626. 407. o
1892 3 -8 0 -24 8053. 7798. 549. o
1892 2 0 8 -24 8053. 7798. 549. o
1892 1 8 0 24 8053. 7798. 549. o
1893 3 -8 0 24 8042. 7731. 493. o
1893 2 0 8 24 8042. 7731. 493. o
1893 1 8 0 -24 8042. 7731. 493. o
1894 3 0 -2 -24 29269. 30614. 307. o
1894 2 2 0 -24 29269. 30614. 307. o
1894 1 0 2 24 29269. 30614. 307. o
1895 3 -1 -2 -24 381. 350. 170. o
1895 1 1 2 24 381. 350. 170. o
1896 3 -2 -2 -24 79530. 82607. 299. o
1896 2 2 2 -24 79530. 82607. 299. o
1896 1 2 2 24 79530. 82607. 299. o
1897 3 -2 -2 24 79506. 80906. 480. o
1897 2 2 2 24 79506. 80906. 480. o
1897 1 2 2 -24 79506. 80906. 480. o
1898 3 -3 -2 -24 601. 926. 236. o
1898 1 3 2 24 601. 926. 236. o
1899 3 -3 -2 24 602. 766. 227. o
1899 1 3 2 -24 602. 766. 227. o
1900 3 -4 -2 -24 12637. 13119. 287. o
1900 2 2 4 -24 12637. 13119. 287. o
1900 1 4 2 24 12637. 13119. 287. o
1901 3 -4 -2 24 12640. 12712. 292. o
1901 2 2 4 24 12640. 12712. 292. o
1901 1 4 2 -24 12640. 12712. 292. o
1902 3 -5 -2 -24 48. 151. 321. <
1902 1 5 2 24 48. 151. 321. <
1903 3 -5 -2 24 49. 246. 255. <
1903 1 5 2 -24 49. 246. 255. <
1904 3 -6 -2 -24 19396. 18903. 348. o
1904 2 2 6 -24 19396. 18903. 348. o
1904 1 6 2 24 19396. 18903. 348. o
1905 3 -6 -2 24 19381. 19036. 327. o
1905 2 2 6 24 19381. 19036. 327. o
1905 1 6 2 -24 19381. 19036. 327. o
1906 3 -7 -2 -24 148. 113. 302. <
1906 1 7 2 24 148. 113. 302. <
1907 3 -7 -2 24 148. 265. 312. <
1907 1 7 2 -24 148. 265. 312. <
1908 3 -8 -2 -24 2060. 2032. 331. o
1908 2 2 8 -24 2060. 2032. 331. o
1908 1 8 2 24 2060. 2032. 331. o
1909 3 -8 -2 24 2063. 2136. 350. o
1909 2 2 8 24 2063. 2136. 350. o
1909 1 8 2 -24 2063. 2136. 350. o
1910 3 0 -4 -24 46782. 47882. 432. o
1910 2 4 0 -24 46782. 47882. 432. o
1910 1 0 4 24 46782. 47882. 432. o
1911 3 -1 -4 -24 1222. 1446. 236. o
1911 1 1 4 24 1222. 1446. 236. o
1912 3 -2 -4 -24 9847. 9867. 350. o
1912 2 4 2 -24 9847. 9867. 350. o
1912 1 2 4 24 9847. 9867. 350. o
1913 3 -2 -4 24 9890. 10964. 495. o
1913 2 4 2 24 9890. 10964. 495. o
1913 1 2 4 -24 9890. 10964. 495. o
1914 3 -3 -4 -24 310. 217. 340. <
1914 1 3 4 24 310. 217. 340. <
1915 3 -3 -4 24 310. 246. 274. <
1915 1 3 4 -24 310. 246. 274. <
1916 3 -4 -4 -24 24591. 25557. 370. o
1916 2 4 4 -24 24591. 25557. 370. o
1916 1 4 4 24 24591. 25557. 370. o
1917 3 -4 -4 24 24592. 25311. 326. o
1917 2 4 4 24 24592. 25311. 326. o
1917 1 4 4 -24 24592. 25311. 326. o
1918 3 -5 -4 -24 790. 1446. 292. o
1918 1 5 4 24 790. 1446. 292. o
1919 3 -5 -4 24 790. 1172. 293. o
1919 1 5 4 -24 790. 1172. 293. o
1920 3 -6 -4 -24 2883. 2741. 322. o
1920 2 4 6 -24 2883. 2741. 322. o
1920 1 6 4 24 2883. 2741. 322. o
1921 3 -6 -4 24 2892. 3043. 321. o
1921 2 4 6 24 2892. 3043. 321. o
1921 1 6 4 -24 2892. 3043. 321. o
1922 3 -7 -4 -24 47. 95. 312. <
1922 1 7 4 24 47. 95. 312. <
1923 3 -7 -4 24 47. 255. 350. <
1923 1 7 4 -24 47. 255. 350. <
1924 3 -8 -4 -24 4874. 4962. 397. o
1924 2 4 8 -24 4874. 4962. 397. o
1924 1 8 4 24 4874. 4962. 397. o
1925 3 -8 -4 24 4870. 4433. 398. o
1925 2 4 8 24 4870. 4433. 398. o
1925 1 8 4 -24 4870. 4433. 398. o
1926 3 0 -6 -24 3801. 3119. 314. o
1926 2 6 0 -24 3801. 3119. 314. o
1926 1 0 6 24 3801. 3119. 314. o
1927 3 -1 -6 -24 568. 151. 227. <
1927 1 1 6 24 568. 151. 227. <
1928 3 -2 -6 -24 14897. 14452. 290. o
1928 2 6 2 -24 14897. 14452. 290. o
1928 1 2 6 24 14897. 14452. 290. o
1929 3 -3 -6 -24 924. 1030. 265. o
1929 1 3 6 24 924. 1030. 265. o
1930 3 -3 -6 24 924. 662. 520. <
1930 1 3 6 -24 924. 662. 520. <
1931 3 -4 -6 -24 2201. 1909. 341. o
1931 2 6 4 -24 2201. 1909. 341. o
1931 1 4 6 24 2201. 1909. 341. o
1932 3 -4 -6 24 2222. 1985. 416. o
1932 2 6 4 24 2222. 1985. 416. o
1932 1 4 6 -24 2222. 1985. 416. o
1933 3 -5 -6 -24 79. 284. 321. <
1933 1 5 6 24 79. 284. 321. <
1934 3 -5 -6 24 80. 151. 340. <
1934 1 5 6 -24 80. 151. 340. <
1935 3 -6 -6 -24 5988. 6125. 387. o
1935 2 6 6 -24 5988. 6125. 387. o
1935 1 6 6 24 5988. 6125. 387. o
1936 3 -6 -6 24 5987. 6248. 415. o
1936 2 6 6 24 5987. 6248. 415. o
1936 1 6 6 -24 5987. 6248. 415. o
1937 3 0 -8 -24 5550. 5057. 342. o
1937 2 8 0 -24 5550. 5057. 342. o
1937 1 0 8 24 5550. 5057. 342. o
1938 3 -1 -8 -24 321. 378. 246. <
1938 1 1 8 24 321. 378. 246. <
1939 3 -2 -8 -24 1140. 936. 246. o
1939 2 8 2 -24 1140. 936. 246. o
1939 1 2 8 24 1140. 936. 246. o
1940 3 -3 -8 -24 72. 170. 265. <
1940 1 3 8 24 72. 170. 265. <
1941 3 -4 -8 -24 4095. 4272. 378. o
1941 2 8 4 -24 4095. 4272. 378. o
1941 1 4 8 24 4095. 4272. 378. o
1942 3 -4 -8 24 4097. 3658. 549. o
1942 2 8 4 24 4097. 3658. 549. o
1942 1 4 8 -24 4097. 3658. 549. o
1943 3 0 -1 -25 470. 57. 217. <
1943 1 0 1 25 470. 57. 217. <
1944 3 -1 -1 -25 129462. 132474. 2645. o
1944 2 1 1 -25 129462. 132474. 2645. o
1944 1 1 1 25 129462. 132474. 2645. o
1945 3 -2 -1 -25 1197. 1928. 216. o
1945 1 2 1 25 1197. 1928. 216. o
1946 3 -2 -1 25 1199. 1815. 216. o
1946 1 2 1 -25 1199. 1815. 216. o
1947 3 -3 -1 -25 74883. 79526. 220. o
1947 2 1 3 -25 74883. 79526. 220. o
1947 1 3 1 25 74883. 79526. 220. o
1948 3 -3 -1 25 74865. 76161. 359. o
1948 2 1 3 25 74865. 76161. 359. o
1948 1 3 1 -25 74865. 76161. 359. o
1949 3 -4 -1 -25 82. -9. 265. <
1949 1 4 1 25 82. -9. 265. <
1950 3 -4 -1 25 83. 57. 227. <
1950 1 4 1 -25 83. 57. 227. <
1951 3 -5 -1 -25 26039. 26323. 334. o
1951 2 1 5 -25 26039. 26323. 334. o
1951 1 5 1 25 26039. 26323. 334. o
1952 3 -5 -1 25 26019. 25349. 335. o
1952 2 1 5 25 26019. 25349. 335. o
1952 1 5 1 -25 26019. 25349. 335. o
1953 3 -6 -1 -25 84. 180. 284. <
1953 1 6 1 25 84. 180. 284. <
1954 3 -6 -1 25 84. 482. 265. <
1954 1 6 1 -25 84. 482. 265. <
1955 3 -7 -1 -25 8820. 8100. 336. o
1955 2 1 7 -25 8820. 8100. 336. o
1955 1 7 1 25 8820. 8100. 336. o
1956 3 -7 -1 25 8816. 7996. 346. o
1956 2 1 7 25 8816. 7996. 346. o
1956 1 7 1 -25 8816. 7996. 346. o
1957 3 -8 -1 -25 71. 0. 331. <
1957 1 8 1 25 71. 0. 331. <
1958 3 -8 -1 25 71. 85. 321. <
1958 1 8 1 -25 71. 85. 321. <
1959 3 0 -3 -25 5157. 5274. 283. o
1959 1 0 3 25 5157. 5274. 283. o
1960 3 -1 -3 -25 57925. 58279. 324. o
1960 2 3 1 -25 57925. 58279. 324. o
1960 1 1 3 25 57925. 58279. 324. o
1961 3 -2 -3 -25 1569. 964. 228. o
1961 1 2 3 25 1569. 964. 228. o
1962 3 -2 -3 25 1570. 860. 341. o
1962 1 2 3 -25 1570. 860. 341. o
1963 3 -3 -3 -25 32283. 33194. 366. o
1963 2 3 3 -25 32283. 33194. 366. o
1963 1 3 3 25 32283. 33194. 366. o
1964 3 -3 -3 25 32261. 32088. 345. o
1964 2 3 3 25 32261. 32088. 345. o
1964 1 3 3 -25 32261. 32088. 345. o
1965 3 -4 -3 -25 674. 945. 283. o
1965 1 4 3 25 674. 945. 283. o
1966 3 -4 -3 25 674. 926. 227. o
1966 1 4 3 -25 674. 926. 227. o
1967 3 -5 -3 -25 17364. 18516. 343. o
1967 2 3 5 -25 17364. 18516. 343. o
1967 1 5 3 25 17364. 18516. 343. o
1968 3 -5 -3 25 17368. 18119. 320. o
1968 2 3 5 25 17368. 18119. 320. o
1968 1 5 3 -25 17368. 18119. 320. o
1969 3 -6 -3 -25 94. 104. 302. <
1969 1 6 3 25 94. 104. 302. <
1970 3 -6 -3 25 94. 142. 293. <
1970 1 6 3 -25 94. 142. 293. <
1971 3 -7 -3 -25 4536. 4376. 360. o
1971 2 3 7 -25 4536. 4376. 360. o
1971 1 7 3 25 4536. 4376. 360. o
1972 3 -7 -3 25 4528. 4300. 332. o
1972 2 3 7 25 4528. 4300. 332. o
1972 1 7 3 -25 4528. 4300. 332. o
1973 3 -8 -3 -25 20. 217. 340. <
1973 1 8 3 25 20. 217. 340. <
1974 3 -8 -3 25 20. 161. 378. <
1974 1 8 3 -25 20. 161. 378. <
1975 3 0 -5 -25 1316. 113. 312. <
1975 1 0 5 25 1316. 113. 312. <
1976 3 -1 -5 -25 10998. 10567. 251. o
1976 2 5 1 -25 10998. 10567. 251. o
1976 1 1 5 25 10998. 10567. 251. o
1977 3 -2 -5 -25 1380. 1389. 265. o
1977 1 2 5 25 1380. 1389. 265. o
1978 3 -3 -5 -25 10951. 11550. 411. o
1978 2 5 3 -25 10951. 11550. 411. o
1978 1 3 5 25 10951. 11550. 411. o
1979 3 -3 -5 25 10974. 11040. 472. o
1979 2 5 3 25 10974. 11040. 472. o
1979 1 3 5 -25 10974. 11040. 472. o
1980 3 -4 -5 -25 132. 265. 331. <
1980 1 4 5 25 132. 265. 331. <
1981 3 -4 -5 25 132. 76. 293. <
1981 1 4 5 -25 132. 76. 293. <
1982 3 -5 -5 -25 4061. 4329. 339. o
1982 2 5 5 -25 4061. 4329. 339. o
1982 1 5 5 25 4061. 4329. 339. o
1983 3 -5 -5 25 4057. 4140. 340. o
1983 2 5 5 25 4057. 4140. 340. o
1983 1 5 5 -25 4057. 4140. 340. o
1984 3 -6 -5 -25 24. -28. 312. <
1984 1 6 5 25 24. -28. 312. <
1985 3 -6 -5 25 24. 95. 312. <
1985 1 6 5 -25 24. 95. 312. <
1986 3 -7 -5 -25 3885. 4197. 349. o
1986 2 5 7 -25 3885. 4197. 349. o
1986 1 7 5 25 3885. 4197. 349. o
1987 3 -7 -5 25 3891. 4036. 387. o
1987 2 5 7 25 3891. 4036. 387. o
1987 1 7 5 -25 3891. 4036. 387. o
1988 3 0 -7 -25 179. 113. 331. <
1988 1 0 7 25 179. 113. 331. <
1989 3 -1 -7 -25 2197. 1843. 256. o
1989 2 7 1 -25 2197. 1843. 256. o
1989 1 1 7 25 2197. 1843. 256. o
1990 3 -2 -7 -25 87. 47. 246. <
1990 1 2 7 25 87. 47. 246. <
1991 3 -3 -7 -25 1351. 1399. 265. o
1991 2 7 3 -25 1351. 1399. 265. o
1991 1 3 7 25 1351. 1399. 265. o
1992 3 -4 -7 -25 24. 227. 406. <
1992 1 4 7 25 24. 227. 406. <
1993 3 -4 -7 25 24. 9. 643. <
1993 1 4 7 -25 24. 9. 643. <
1994 3 -5 -7 -25 2831. 3185. 368. o
1994 2 7 5 -25 2831. 3185. 368. o
1994 1 5 7 25 2831. 3185. 368. o
1995 3 -5 -7 25 2843. 3006. 472. o
1995 2 7 5 25 2843. 3006. 472. o
1995 1 5 7 -25 2843. 3006. 472. o
1996 3 0 -9 -25 115. 302. 397. <
1996 1 0 9 25 115. 302. 397. <
1997 3 0 0 -26 142339. 145385. 952. o
1997 2 0 0 -26 142339. 145385. 952. o
1997 1 0 0 26 142339. 145385. 952. o
1998 3 -2 0 -26 53225. 51587. 767. o
1998 2 0 2 -26 53225. 51587. 767. o
1998 1 2 0 26 53225. 51587. 767. o
1999 3 -2 0 26 53167. 50112. 783. o
1999 2 0 2 26 53167. 50112. 783. o
1999 1 2 0 -26 53167. 50112. 783. o
2000 3 -4 0 -26 47375. 48648. 507. o
2000 2 0 4 -26 47375. 48648. 507. o
2000 1 4 0 26 47375. 48648. 507. o
2001 3 -4 0 26 47356. 47560. 496. o
2001 2 0 4 26 47356. 47560. 496. o
2001 1 4 0 -26 47356. 47560. 496. o
2002 3 -6 0 -26 5565. 5595. 416. o
2002 2 0 6 -26 5565. 5595. 416. o
2002 1 6 0 26 5565. 5595. 416. o
2003 3 -6 0 26 5556. 4877. 381. o
2003 2 0 6 26 5556. 4877. 381. o
2003 1 6 0 -26 5556. 4877. 381. o
2004 3 -8 0 -26 4319. 3733. 540. o
2004 2 0 8 -26 4319. 3733. 540. o
2004 1 8 0 26 4319. 3733. 540. o
2005 3 -8 0 26 4314. 3412. 512. o
2005 2 0 8 26 4314. 3412. 512. o
2005 1 8 0 -26 4314. 3412. 512. o
2006 3 0 -2 -26 45718. 42135. 468. o
2006 2 2 0 -26 45718. 42135. 468. o
2006 1 0 2 26 45718. 42135. 468. o
2007 3 -1 -2 -26 1690. 1947. 179. o
2007 1 1 2 26 1690. 1947. 179. o
2008 3 -2 -2 -26 72737. 74498. 358. o
2008 2 2 2 -26 72737. 74498. 358. o
2008 1 2 2 26 72737. 74498. 358. o
2009 3 -2 -2 26 72697. 72002. 636. o
2009 2 2 2 26 72697. 72002. 636. o
2009 1 2 2 -26 72697. 72002. 636. o
2010 3 -3 -2 -26 829. 879. 236. o
2010 1 3 2 26 829. 879. 236. o
2011 3 -3 -2 26 830. 1115. 217. o
2011 1 3 2 -26 830. 1115. 217. o
2012 3 -4 -2 -26 13611. 13497. 304. o
2012 2 2 4 -26 13611. 13497. 304. o
2012 1 4 2 26 13611. 13497. 304. o
2013 3 -4 -2 26 13585. 12826. 293. o
2013 2 2 4 26 13585. 12826. 293. o
2013 1 4 2 -26 13585. 12826. 293. o
2014 3 -5 -2 -26 33. 132. 302. <
2014 1 5 2 26 33. 132. 302. <
2015 3 -5 -2 26 33. 236. 246. <
2015 1 5 2 -26 33. 236. 246. <
2016 3 -6 -2 -26 11890. 11814. 379. o
2016 2 2 6 -26 11890. 11814. 379. o
2016 1 6 2 26 11890. 11814. 379. o
2017 3 -6 -2 26 11882. 11701. 304. o
2017 2 2 6 26 11882. 11701. 304. o
2017 1 6 2 -26 11882. 11701. 304. o
2018 3 -7 -2 -26 25. -274. 331. <
2018 1 7 2 26 25. -274. 331. <
2019 3 -7 -2 26 25. 406. 302. <
2019 1 7 2 -26 25. 406. 302. <
2020 3 -8 -2 -26 1158. 1096. 359. o
2020 2 2 8 -26 1158. 1096. 359. o
2020 1 8 2 26 1158. 1096. 359. o
2021 3 -8 -2 26 1157. 1314. 378. o
2021 2 2 8 26 1157. 1314. 378. o
2021 1 8 2 -26 1157. 1314. 378. o
2022 3 0 -4 -26 29181. 29177. 425. o
2022 2 4 0 -26 29181. 29177. 425. o
2022 1 0 4 26 29181. 29177. 425. o
2023 3 -1 -4 -26 2241. 2637. 358. o
2023 1 1 4 26 2241. 2637. 358. o
2024 3 -2 -4 -26 7349. 6767. 334. o
2024 2 4 2 -26 7349. 6767. 334. o
2024 1 2 4 26 7349. 6767. 334. o
2025 3 -2 -4 26 7334. 6626. 438. o
2025 2 4 2 26 7334. 6626. 438. o
2025 1 2 4 -26 7334. 6626. 438. o
2026 3 -3 -4 -26 353. 302. 359. <
2026 1 3 4 26 353. 302. 359. <
2027 3 -3 -4 26 354. 444. 359. <
2027 1 3 4 -26 354. 444. 359. <
2028 3 -4 -4 -26 13611. 13762. 358. o
2028 2 4 4 -26 13611. 13762. 358. o
2028 1 4 4 26 13611. 13762. 358. o
2029 3 -4 -4 26 13608. 13809. 310. o
2029 2 4 4 26 13608. 13809. 310. o
2029 1 4 4 -26 13608. 13809. 310. o
2030 3 -5 -4 -26 234. 312. 321. <
2030 1 5 4 26 234. 312. 321. <
2031 3 -5 -4 26 234. 236. 284. <
2031 1 5 4 -26 234. 236. 284. <
2032 3 -6 -4 -26 1571. 1616. 321. o
2032 2 4 6 -26 1571. 1616. 321. o
2032 1 6 4 26 1571. 1616. 321. o
2033 3 -6 -4 26 1569. 1257. 322. o
2033 2 4 6 26 1569. 1257. 322. o
2033 1 6 4 -26 1569. 1257. 322. o
2034 3 -7 -4 -26 96. 113. 312. <
2034 1 7 4 26 96. 113. 312. <
2035 3 -7 -4 26 96. 198. 350. <
2035 1 7 4 -26 96. 198. 350. <
2036 3 0 -6 -26 497. 331. 303. <
2036 2 6 0 -26 497. 331. 303. <
2036 1 0 6 26 497. 331. 303. <
2037 3 -1 -6 -26 233. 350. 198. <
2037 1 1 6 26 233. 350. 198. <
2038 3 -2 -6 -26 4431. 4603. 226. o
2038 2 6 2 -26 4431. 4603. 226. o
2038 1 2 6 26 4431. 4603. 226. o
2039 3 -3 -6 -26 283. 652. 274. o
2039 1 3 6 26 283. 652. 274. o
2040 3 -3 -6 26 283. 690. 425. <
2040 1 3 6 -26 283. 690. 425. <
2041 3 -4 -6 -26 524. 369. 359. <
2041 2 6 4 -26 524. 369. 359. <
2041 1 4 6 26 524. 369. 359. <
2042 3 -4 -6 26 528. 529. 444. <
2042 2 6 4 26 528. 529. 444. <
2042 1 4 6 -26 528. 529. 444. <
2043 3 -5 -6 -26 98. 104. 350. <
2043 1 5 6 26 98. 104. 350. <
2044 3 -5 -6 26 98. 113. 331. <
2044 1 5 6 -26 98. 113. 331. <
2045 3 -6 -6 -26 2398. 2316. 388. o
2045 2 6 6 -26 2398. 2316. 388. o
2045 1 6 6 26 2398. 2316. 388. o
2046 3 -6 -6 26 2400. 2429. 435. o
2046 2 6 6 26 2400. 2429. 435. o
2046 1 6 6 -26 2400. 2429. 435. o
2047 3 0 -8 -26 789. 983. 378. o
2047 2 8 0 -26 789. 983. 378. o
2047 1 0 8 26 789. 983. 378. o
2048 3 -1 -8 -26 11. 302. 265. <
2048 1 1 8 26 11. 302. 265. <
2049 3 -2 -8 -26 130. -57. 255. <
2049 2 8 2 -26 130. -57. 255. <
2049 1 2 8 26 130. -57. 255. <
2050 3 -3 -8 -26 63. -132. 265. <
2050 1 3 8 26 63. -132. 265. <
2051 3 0 -1 -27 10358. 8714. 262. o
2051 1 0 1 27 10358. 8714. 262. o
2052 3 -1 -1 -27 13631. 13223. 215. o
2052 2 1 1 -27 13631. 13223. 215. o
2052 1 1 1 27 13631. 13223. 215. o
2053 3 -2 -1 -27 15052. 14158. 277. o
2053 1 2 1 27 15052. 14158. 277. o
2054 3 -2 -1 27 15050. 14187. 378. o
2054 1 2 1 -27 15050. 14187. 378. o
2055 3 -3 -1 -27 8519. 8932. 309. o
2055 2 1 3 -27 8519. 8932. 309. o
2055 1 3 1 27 8519. 8932. 309. o
2056 3 -3 -1 27 8514. 8875. 252. o
2056 2 1 3 27 8514. 8875. 252. o
2056 1 3 1 -27 8514. 8875. 252. o
2057 3 -4 -1 -27 5642. 4962. 296. o
2057 1 4 1 27 5642. 4962. 296. o
2058 3 -4 -1 27 5641. 4773. 250. o
2058 1 4 1 -27 5641. 4773. 250. o
2059 3 -5 -1 -27 3265. 3639. 282. o
2059 2 1 5 -27 3265. 3639. 282. o
2059 1 5 1 27 3265. 3639. 282. o
2060 3 -5 -1 27 3261. 3412. 264. o
2060 2 1 5 27 3261. 3412. 264. o
2060 1 5 1 -27 3261. 3412. 264. o
2061 3 -6 -1 -27 3627. 3204. 304. o
2061 1 6 1 27 3627. 3204. 304. o
2062 3 -6 -1 27 3627. 3639. 265. o
2062 1 6 1 -27 3627. 3639. 265. o
2063 3 -7 -1 -27 1094. 1238. 312. o
2063 2 1 7 -27 1094. 1238. 312. o
2063 1 7 1 27 1094. 1238. 312. o
2064 3 -7 -1 27 1094. 1427. 330. o
2064 2 1 7 27 1094. 1427. 330. o
2064 1 7 1 -27 1094. 1427. 330. o
2065 3 -8 -1 -27 982. 1153. 340. o
2065 1 8 1 27 982. 1153. 340. o
2066 3 -8 -1 27 982. 1087. 340. o
2066 1 8 1 -27 982. 1087. 340. o
2067 3 0 -3 -27 18541. 18478. 332. o
2067 1 0 3 27 18541. 18478. 332. o
2068 3 -1 -3 -27 7182. 7845. 192. o
2068 2 3 1 -27 7182. 7845. 192. o
2068 1 1 3 27 7182. 7845. 192. o
2069 3 -2 -3 -27 3870. 2987. 221. o
2069 1 2 3 27 3870. 2987. 221. o
2070 3 -2 -3 27 3872. 2524. 362. o
2070 1 2 3 -27 3872. 2524. 362. o
2071 3 -3 -3 -27 4222. 4263. 312. o
2071 2 3 3 -27 4222. 4263. 312. o
2071 1 3 3 27 4222. 4263. 312. o
2072 3 -3 -3 27 4216. 4083. 256. o
2072 2 3 3 27 4216. 4083. 256. o
2072 1 3 3 -27 4216. 4083. 256. o
2073 3 -4 -3 -27 8573. 7939. 335. o
2073 1 4 3 27 8573. 7939. 335. o
2074 3 -4 -3 27 8571. 7675. 290. o
2074 1 4 3 -27 8571. 7675. 290. o
2075 3 -5 -3 -27 2192. 2684. 330. o
2075 2 3 5 -27 2192. 2684. 330. o
2075 1 5 3 27 2192. 2684. 330. o
2076 3 -5 -3 27 2193. 2911. 282. o
2076 2 3 5 27 2193. 2911. 282. o
2076 1 5 3 -27 2193. 2911. 282. o
2077 3 -6 -3 -27 1633. 1720. 321. o
2077 1 6 3 27 1633. 1720. 321. o
2078 3 -6 -3 27 1633. 1427. 293. o
2078 1 6 3 -27 1633. 1427. 293. o
2079 3 -7 -3 -27 513. 803. 368. o
2079 2 3 7 -27 513. 803. 368. o
2079 1 7 3 27 513. 803. 368. o
2080 3 -7 -3 27 511. 671. 331. o
2080 2 3 7 27 511. 671. 331. o
2080 1 7 3 -27 511. 671. 331. o
2081 3 -8 -3 -27 1104. 1616. 387. o
2081 1 8 3 27 1104. 1616. 387. o
2082 3 -8 -3 27 1103. 1219. 387. o
2082 1 8 3 -27 1103. 1219. 387. o
2083 3 0 -5 -27 1556. 1333. 312. o
2083 1 0 5 27 1556. 1333. 312. o
2084 3 -1 -5 -27 1789. 2164. 207. o
2084 2 5 1 -27 1789. 2164. 207. o
2084 1 1 5 27 1789. 2164. 207. o
2085 3 -2 -5 -27 9006. 9055. 283. o
2085 1 2 5 27 9006. 9055. 283. o
2086 3 -3 -5 -27 1517. 1862. 311. o
2086 2 5 3 -27 1517. 1862. 311. o
2086 1 3 5 27 1517. 1862. 311. o
2087 3 -3 -5 27 1519. 1890. 501. o
2087 2 5 3 27 1519. 1890. 501. o
2087 1 3 5 -27 1519. 1890. 501. o
2088 3 -4 -5 -27 1321. 1153. 331. o
2088 1 4 5 27 1321. 1153. 331. o
2089 3 -4 -5 27 1322. 974. 303. o
2089 1 4 5 -27 1322. 974. 303. o
2090 3 -5 -5 -27 495. 529. 321. <
2090 2 5 5 -27 495. 529. 321. <
2090 1 5 5 27 495. 529. 321. <
2091 3 -5 -5 27 492. 510. 321. <
2091 2 5 5 27 492. 510. 321. <
2091 1 5 5 -27 492. 510. 321. <
2092 3 -6 -5 -27 2289. 2004. 341. o
2092 1 6 5 27 2289. 2004. 341. o
2093 3 -6 -5 27 2288. 1881. 341. o
2093 1 6 5 -27 2288. 1881. 341. o
2094 3 -7 -5 -27 449. 822. 340. o
2094 2 5 7 -27 449. 822. 340. o
2094 1 7 5 27 449. 822. 340. o
2095 3 -7 -5 27 451. 974. 368. o
2095 2 5 7 27 451. 974. 368. o
2095 1 7 5 -27 451. 974. 368. o
2096 3 0 -7 -27 3971. 3790. 350. o
2096 1 0 7 27 3971. 3790. 350. o
2097 3 -1 -7 -27 352. 577. 236. o
2097 2 7 1 -27 352. 577. 236. o
2097 1 1 7 27 352. 577. 236. o
2098 3 -2 -7 -27 660. 822. 246. o
2098 1 2 7 27 660. 822. 246. o
2099 3 -3 -7 -27 169. 198. 284. <
2099 2 7 3 -27 169. 198. 284. <
2099 1 3 7 27 169. 198. 284. <
2100 3 -4 -7 -27 2122. 2079. 331. o
2100 1 4 7 27 2122. 2079. 331. o
2101 3 -4 -7 27 2121. 2164. 586. o
2101 1 4 7 -27 2121. 2164. 586. o
2102 3 -5 -7 -27 334. 293. 397. <
2102 2 7 5 -27 334. 293. 397. <
2102 1 5 7 27 334. 293. 397. <
2103 3 -5 -7 27 337. 284. 520. <
2103 2 7 5 27 337. 284. 520. <
2103 1 5 7 -27 337. 284. 520. <
2104 3 0 0 -28 4740. 5123. 490. o
2104 2 0 0 -28 4740. 5123. 490. o
2104 1 0 0 28 4740. 5123. 490. o
2105 3 -2 0 -28 4644. 4612. 492. o
2105 2 0 2 -28 4644. 4612. 492. o
2105 1 2 0 28 4644. 4612. 492. o
2106 3 -2 0 28 4662. 4386. 473. o
2106 2 0 2 28 4662. 4386. 473. o
2106 1 2 0 -28 4662. 4386. 473. o
2107 3 -4 0 -28 615. 643. 369. <
2107 2 0 4 -28 615. 643. 369. <
2107 1 4 0 28 615. 643. 369. <
2108 3 -4 0 28 617. 699. 321. o
2108 2 0 4 28 617. 699. 321. o
2108 1 4 0 -28 617. 699. 321. o
2109 3 -6 0 -28 346. 208. 406. <
2109 2 0 6 -28 346. 208. 406. <
2109 1 6 0 28 346. 208. 406. <
2110 3 -6 0 28 350. 388. 378. <
2110 2 0 6 28 350. 388. 378. <
2110 1 6 0 -28 350. 388. 378. <
2111 3 -8 0 -28 37. 302. 520. <
2111 2 0 8 -28 37. 302. 520. <
2111 1 8 0 28 37. 302. 520. <
2112 3 -8 0 28 37. 501. 510. <
2112 2 0 8 28 37. 501. 510. <
2112 1 8 0 -28 37. 501. 510. <
2113 3 0 -2 -28 3908. 3525. 238. o
2113 2 2 0 -28 3908. 3525. 238. o
2113 1 0 2 28 3908. 3525. 238. o
2114 3 -1 -2 -28 9113. 10104. 175. o
2114 1 1 2 28 9113. 10104. 175. o
2115 3 -2 -2 -28 1322. 1389. 189. o
2115 2 2 2 -28 1322. 1389. 189. o
2115 1 2 2 28 1322. 1389. 189. o
2116 3 -2 -2 28 1323. 1474. 302. o
2116 2 2 2 28 1323. 1474. 302. o
2116 1 2 2 -28 1323. 1474. 302. o
2117 3 -3 -2 -28 2709. 3100. 263. o
2117 1 3 2 28 2709. 3100. 263. o
2118 3 -3 -2 28 2715. 3185. 244. o
2118 1 3 2 -28 2715. 3185. 244. o
2119 3 -4 -2 -28 924. 803. 265. o
2119 2 2 4 -28 924. 803. 265. o
2119 1 4 2 28 924. 803. 265. o
2120 3 -4 -2 28 930. 832. 236. o
2120 2 2 4 28 930. 832. 236. o
2120 1 4 2 -28 930. 832. 236. o
2121 3 -5 -2 -28 1612. 1437. 265. o
2121 1 5 2 28 1612. 1437. 265. o
2122 3 -5 -2 28 1613. 1607. 236. o
2122 1 5 2 -28 1613. 1607. 236. o
2123 3 -6 -2 -28 68. 208. 340. <
2123 2 2 6 -28 68. 208. 340. <
2123 1 6 2 28 68. 208. 340. <
2124 3 -6 -2 28 68. -28. 284. <
2124 2 2 6 28 68. -28. 284. <
2124 1 6 2 -28 68. -28. 284. <
2125 3 -7 -2 -28 4. 406. 321. <
2125 1 7 2 28 4. 406. 321. <
2126 3 -7 -2 28 4. 312. 312. <
2126 1 7 2 -28 4. 312. 312. <
2127 3 -8 -2 -28 80. 425. 369. <
2127 2 2 8 -28 80. 425. 369. <
2127 1 8 2 28 80. 425. 369. <
2128 3 -8 -2 28 81. 217. 369. <
2128 2 2 8 28 81. 217. 369. <
2128 1 8 2 -28 81. 217. 369. <
2129 3 0 -4 -28 79. 9. 312. <
2129 2 4 0 -28 79. 9. 312. <
2129 1 0 4 28 79. 9. 312. <
2130 3 -1 -4 -28 10590. 11597. 341. o
2130 1 1 4 28 10590. 11597. 341. o
2131 3 -2 -4 -28 477. 350. 284. <
2131 2 4 2 -28 477. 350. 284. <
2131 1 2 4 28 477. 350. 284. <
2132 3 -3 -4 -28 7940. 8440. 394. o
2132 1 3 4 28 7940. 8440. 394. o
2133 3 -3 -4 28 7944. 8270. 395. o
2133 1 3 4 -28 7944. 8270. 395. o
2134 3 -4 -4 -28 31. 217. 340. <
2134 2 4 4 -28 31. 217. 340. <
2134 1 4 4 28 31. 217. 340. <
2135 3 -4 -4 28 31. 255. 293. <
2135 2 4 4 28 31. 255. 293. <
2135 1 4 4 -28 31. 255. 293. <
2136 3 -5 -4 -28 287. 444. 321. <
2136 1 5 4 28 287. 444. 321. <
2137 3 -5 -4 28 287. 284. 274. <
2137 1 5 4 -28 287. 284. 274. <
2138 3 -6 -4 -28 118. 47. 321. <
2138 2 4 6 -28 118. 47. 321. <
2138 1 6 4 28 118. 47. 321. <
2139 3 -6 -4 28 120. 57. 321. <
2139 2 4 6 28 120. 57. 321. <
2139 1 6 4 -28 120. 57. 321. <
2140 3 -7 -4 -28 769. 614. 331. <
2140 1 7 4 28 769. 614. 331. <
2141 3 -7 -4 28 769. 747. 359. o
2141 1 7 4 -28 769. 747. 359. o
2142 3 0 -6 -28 204. 302. 350. <
2142 2 6 0 -28 204. 302. 350. <
2142 1 0 6 28 204. 302. 350. <
2143 3 -1 -6 -28 5114. 5652. 233. o
2143 1 1 6 28 5114. 5652. 233. o
2144 3 -2 -6 -28 57. 95. 236. <
2144 2 6 2 -28 57. 95. 236. <
2144 1 2 6 28 57. 95. 236. <
2145 3 -3 -6 -28 898. 1011. 274. o
2145 1 3 6 28 898. 1011. 274. o
2146 3 -4 -6 -28 42. 9. 321. <
2146 2 6 4 -28 42. 9. 321. <
2146 1 4 6 28 42. 9. 321. <
2147 3 -4 -6 28 43. 57. 473. <
2147 2 6 4 28 43. 57. 473. <
2147 1 4 6 -28 43. 57. 473. <
2148 3 -5 -6 -28 1653. 1389. 369. o
2148 1 5 6 28 1653. 1389. 369. o
2149 3 -5 -6 28 1653. 1456. 369. o
2149 1 5 6 -28 1653. 1456. 369. o
2150 3 -6 -6 -28 32. 66. 388. <
2150 2 6 6 -28 32. 66. 388. <
2150 1 6 6 28 32. 66. 388. <
2151 3 -6 -6 28 31. 265. 387. <
2151 2 6 6 28 31. 265. 387. <
2151 1 6 6 -28 31. 265. 387. <
2152 3 0 -8 -28 48. 151. 378. <
2152 2 8 0 -28 48. 151. 378. <
2152 1 0 8 28 48. 151. 378. <
2153 3 -1 -8 -28 269. 284. 274. <
2153 1 1 8 28 269. 284. 274. <
2154 3 -2 -8 -28 18. 151. 274. <
2154 2 8 2 -28 18. 151. 274. <
2154 1 2 8 28 18. 151. 274. <
2155 3 -3 -8 -28 693. 1163. 274. o
2155 1 3 8 28 693. 1163. 274. o
2156 3 0 -1 -29 3441. 4348. 222. o
2156 1 0 1 29 3441. 4348. 222. o
2157 3 -1 -1 -29 14298. 15841. 152. o
2157 2 1 1 -29 14298. 15841. 152. o
2157 1 1 1 29 14298. 15841. 152. o
2158 3 -2 -1 -29 21901. 22646. 227. o
2158 1 2 1 29 21901. 22646. 227. o
2159 3 -2 -1 29 21887. 22155. 422. o
2159 1 2 1 -29 21887. 22155. 422. o
2160 3 -3 -1 -29 7712. 8185. 299. o
2160 2 1 3 -29 7712. 8185. 299. o
2160 1 3 1 29 7712. 8185. 299. o
2161 3 -3 -1 29 7711. 8081. 252. o
2161 2 1 3 29 7711. 8081. 252. o
2161 1 3 1 -29 7711. 8081. 252. o
2162 3 -4 -1 -29 3060. 3875. 281. o
2162 1 4 1 29 3060. 3875. 281. o
2163 3 -4 -1 29 3063. 3327. 235. o
2163 1 4 1 -29 3063. 3327. 235. o
2164 3 -5 -1 -29 2829. 2911. 274. o
2164 2 1 5 -29 2829. 2911. 274. o
2164 1 5 1 29 2829. 2911. 274. o
2165 3 -5 -1 29 2831. 2779. 265. o
2165 2 1 5 29 2831. 2779. 265. o
2165 1 5 1 -29 2831. 2779. 265. o
2166 3 -6 -1 -29 3959. 3771. 294. o
2166 1 6 1 29 3959. 3771. 294. o
2167 3 -6 -1 29 3958. 3724. 284. o
2167 1 6 1 -29 3958. 3724. 284. o
2168 3 -7 -1 -29 1085. 794. 312. o
2168 2 1 7 -29 1085. 794. 312. o
2168 1 7 1 29 1085. 794. 312. o
2169 3 -7 -1 29 1087. 945. 321. o
2169 2 1 7 29 1087. 945. 321. o
2169 1 7 1 -29 1087. 945. 321. o
2170 3 -8 -1 -29 790. 898. 350. o
2170 1 8 1 29 790. 898. 350. o
2171 3 -8 -1 29 790. 974. 350. o
2171 1 8 1 -29 790. 974. 350. o
2172 3 0 -3 -29 45466. 44044. 472. o
2172 1 0 3 29 45466. 44044. 472. o
2173 3 -1 -3 -29 5803. 6285. 214. o
2173 2 3 1 -29 5803. 6285. 214. o
2173 1 1 3 29 5803. 6285. 214. o
2174 3 -2 -3 -29 512. 198. 227. <
2174 1 2 3 29 512. 198. 227. <
2175 3 -2 -3 29 513. 321. 473. <
2175 1 2 3 -29 513. 321. 473. <
2176 3 -3 -3 -29 3567. 4206. 310. o
2176 2 3 3 -29 3567. 4206. 310. o
2176 1 3 3 29 3567. 4206. 310. o
2177 3 -3 -3 29 3569. 4225. 310. o
2177 2 3 3 29 3569. 4225. 310. o
2177 1 3 3 -29 3569. 4225. 310. o
2178 3 -4 -3 -29 15234. 15217. 350. o
2178 1 4 3 29 15234. 15217. 350. o
2179 3 -4 -3 29 15227. 14518. 330. o
2179 1 4 3 -29 15227. 14518. 330. o
2180 3 -5 -3 -29 1827. 1805. 312. o
2180 2 3 5 -29 1827. 1805. 312. o
2180 1 5 3 29 1827. 1805. 312. o
2181 3 -5 -3 29 1828. 2023. 274. o
2181 2 3 5 29 1828. 2023. 274. o
2181 1 5 3 -29 1828. 2023. 274. o
2182 3 -6 -3 -29 707. 1002. 331. o
2182 1 6 3 29 707. 1002. 331. o
2183 3 -6 -3 29 708. 737. 302. o
2183 1 6 3 -29 708. 737. 302. o
2184 3 -7 -3 -29 867. 747. 331. o
2184 2 3 7 -29 867. 747. 331. o
2184 1 7 3 29 867. 747. 331. o
2185 3 -7 -3 29 868. 491. 331. <
2185 2 3 7 29 868. 491. 331. <
2185 1 7 3 -29 868. 491. 331. <
2186 3 0 -5 -29 1281. 501. 312. <
2186 1 0 5 29 1281. 501. 312. <
2187 3 -1 -5 -29 1037. 1323. 236. o
2187 2 5 1 -29 1037. 1323. 236. o
2187 1 1 5 29 1037. 1323. 236. o
2188 3 -2 -5 -29 21005. 20047. 301. o
2188 1 2 5 29 21005. 20047. 301. o
2189 3 -3 -5 -29 1092. 1276. 302. o
2189 2 5 3 -29 1092. 1276. 302. o
2189 1 3 5 29 1092. 1276. 302. o
2190 3 -3 -5 29 1090. 1059. 444. o
2190 2 5 3 29 1090. 1059. 444. o
2190 1 3 5 -29 1090. 1059. 444. o
2191 3 -4 -5 -29 145. 208. 340. <
2191 1 4 5 29 145. 208. 340. <
2192 3 -4 -5 29 145. 142. 359. <
2192 1 4 5 -29 145. 142. 359. <
2193 3 -5 -5 -29 869. 803. 369. o
2193 2 5 5 -29 869. 803. 369. o
2193 1 5 5 29 869. 803. 369. o
2194 3 -5 -5 29 868. 1030. 312. o
2194 2 5 5 29 868. 1030. 312. o
2194 1 5 5 -29 868. 1030. 312. o
2195 3 -6 -5 -29 3183. 3034. 388. o
2195 1 6 5 29 3183. 3034. 388. o
2196 3 -6 -5 29 3182. 3176. 369. o
2196 1 6 5 -29 3182. 3176. 369. o
2197 3 0 -7 -29 7571. 7268. 370. o
2197 1 0 7 29 7571. 7268. 370. o
2198 3 -1 -7 -29 268. 369. 236. <
2198 2 7 1 -29 268. 369. 236. <
2198 1 1 7 29 268. 369. 236. <
2199 3 -2 -7 -29 60. 321. 274. <
2199 1 2 7 29 60. 321. 274. <
2200 3 -3 -7 -29 385. 265. 265. <
2200 2 7 3 -29 385. 265. 265. <
2200 1 3 7 29 385. 265. 265. <
2201 3 -4 -7 -29 3196. 3412. 311. o
2201 1 4 7 29 3196. 3412. 311. o
2202 3 -4 -7 29 3195. 3214. 633. o
2202 1 4 7 -29 3195. 3214. 633. o
2203 3 0 0 -30 6083. 4660. 477. o
2203 2 0 0 -30 6083. 4660. 477. o
2203 1 0 0 30 6083. 4660. 477. o
2204 3 -2 0 -30 2741. 1626. 323. o
2204 2 0 2 -30 2741. 1626. 323. o
2204 1 2 0 30 2741. 1626. 323. o
2205 3 -2 0 30 2760. 1815. 455. o
2205 2 0 2 30 2760. 1815. 455. o
2205 1 2 0 -30 2760. 1815. 455. o
2206 3 -4 0 -30 4015. 3894. 388. o
2206 2 0 4 -30 4015. 3894. 388. o
2206 1 4 0 30 4015. 3894. 388. o
2207 3 -4 0 30 4015. 3478. 379. o
2207 2 0 4 30 4015. 3478. 379. o
2207 1 4 0 -30 4015. 3478. 379. o
2208 3 -6 0 -30 1683. 1607. 407. o
2208 2 0 6 -30 1683. 1607. 407. o
2208 1 6 0 30 1683. 1607. 407. o
2209 3 -6 0 30 1694. 1267. 378. o
2209 2 0 6 30 1694. 1267. 378. o
2209 1 6 0 -30 1694. 1267. 378. o
2210 3 -8 0 -30 1500. 1635. 510. o
2210 2 0 8 -30 1500. 1635. 510. o
2210 1 8 0 30 1500. 1635. 510. o
2211 3 -8 0 30 1499. 1739. 529. o
2211 2 0 8 30 1499. 1739. 529. o
2211 1 8 0 -30 1499. 1739. 529. o
2212 3 0 -2 -30 2704. 1928. 229. o
2212 2 2 0 -30 2704. 1928. 229. o
2212 1 0 2 30 2704. 1928. 229. o
2213 3 -1 -2 -30 1910. 2193. 169. o
2213 1 1 2 30 1910. 2193. 169. o
2214 3 -2 -2 -30 5047. 4234. 213. o
2214 2 2 2 -30 5047. 4234. 213. o
2214 1 2 2 30 5047. 4234. 213. o
2215 3 -2 -2 30 5037. 4121. 325. o
2215 2 2 2 30 5037. 4121. 325. o
2215 1 2 2 -30 5037. 4121. 325. o
2216 3 -3 -2 -30 651. 907. 255. o
2216 1 3 2 30 651. 907. 255. o
2217 3 -3 -2 30 649. 643. 265. o
2217 1 3 2 -30 649. 643. 265. o
2218 3 -4 -2 -30 2148. 1947. 265. o
2218 2 2 4 -30 2148. 1947. 265. o
2218 1 4 2 30 2148. 1947. 265. o
2219 3 -4 -2 30 2158. 1796. 246. o
2219 2 2 4 30 2158. 1796. 246. o
2219 1 4 2 -30 2158. 1796. 246. o
2220 3 -5 -2 -30 469. 766. 302. o
2220 1 5 2 30 469. 766. 302. o
2221 3 -5 -2 30 468. 586. 283. o
2221 1 5 2 -30 468. 586. 283. o
2222 3 -6 -2 -30 2557. 2628. 350. o
2222 2 2 6 -30 2557. 2628. 350. o
2222 1 6 2 30 2557. 2628. 350. o
2223 3 -6 -2 30 2554. 2391. 293. o
2223 2 2 6 30 2554. 2391. 293. o
2223 1 6 2 -30 2554. 2391. 293. o
2224 3 -7 -2 -30 11. 142. 331. <
2224 1 7 2 30 11. 142. 331. <
2225 3 -7 -2 30 11. -57. 302. <
2225 1 7 2 -30 11. -57. 302. <
2226 3 0 -4 -30 4851. 4688. 464. o
2226 2 4 0 -30 4851. 4688. 464. o
2226 1 0 4 30 4851. 4688. 464. o
2227 3 -1 -4 -30 2476. 2297. 293. o
2227 1 1 4 30 2476. 2297. 293. o
2228 3 -2 -4 -30 2355. 2287. 293. o
2228 2 4 2 -30 2355. 2287. 293. o
2228 1 2 4 30 2355. 2287. 293. o
2229 3 -3 -4 -30 2080. 2155. 312. o
2229 1 3 4 30 2080. 2155. 312. o
2230 3 -3 -4 30 2078. 2117. 416. o
2230 1 3 4 -30 2078. 2117. 416. o
2231 3 -4 -4 -30 3455. 3393. 369. o
2231 2 4 4 -30 3455. 3393. 369. o
2231 1 4 4 30 3455. 3393. 369. o
2232 3 -4 -4 30 3444. 3374. 312. o
2232 2 4 4 30 3444. 3374. 312. o
2232 1 4 4 -30 3444. 3374. 312. o
2233 3 -5 -4 -30 175. 246. 340. <
2233 1 5 4 30 175. 246. 340. <
2234 3 -5 -4 30 174. 66. 284. <
2234 1 5 4 -30 174. 66. 284. <
2235 3 -6 -4 -30 1410. 1635. 349. o
2235 2 4 6 -30 1410. 1635. 349. o
2235 1 6 4 30 1410. 1635. 349. o
2236 3 -6 -4 30 1412. 1077. 322. o
2236 2 4 6 30 1412. 1077. 322. o
2236 1 6 4 -30 1412. 1077. 322. o
2237 3 -7 -4 -30 284. 671. 350. <
2237 1 7 4 30 284. 671. 350. <
2238 3 -7 -4 30 284. 548. 378. <
2238 1 7 4 -30 284. 548. 378. <
2239 3 0 -6 -30 2200. 2098. 359. o
2239 2 6 0 -30 2200. 2098. 359. o
2239 1 0 6 30 2200. 2098. 359. o
2240 3 -1 -6 -30 1589. 1588. 246. o
2240 1 1 6 30 1589. 1588. 246. o
2241 3 -2 -6 -30 3485. 3639. 264. o
2241 2 6 2 -30 3485. 3639. 264. o
2241 1 2 6 30 3485. 3639. 264. o
2242 3 -3 -6 -30 432. 435. 274. <
2242 1 3 6 30 432. 435. 274. <
2243 3 -4 -6 -30 1621. 1853. 368. o
2243 2 6 4 -30 1621. 1853. 368. o
2243 1 4 6 30 1621. 1853. 368. o
2244 3 -4 -6 30 1618. 1777. 595. o
2244 2 6 4 30 1618. 1777. 595. o
2244 1 4 6 -30 1618. 1777. 595. o
2245 3 -5 -6 -30 610. 888. 378. o
2245 1 5 6 30 610. 888. 378. o
2246 3 -5 -6 30 610. 747. 425. <
2246 1 5 6 -30 610. 747. 425. <
2247 3 0 -8 -30 2343. 2240. 435. o
2247 2 8 0 -30 2343. 2240. 435. o
2247 1 0 8 30 2343. 2240. 435. o
2248 3 -1 -8 -30 225. 331. 274. <
2248 1 1 8 30 225. 331. 274. <
2249 3 0 -1 -31 1096. 2136. 225. o
2249 1 0 1 31 1096. 2136. 225. o
2250 3 -1 -1 -31 1285. 813. 171. o
2250 2 1 1 -31 1285. 813. 171. o
2250 1 1 1 31 1285. 813. 171. o
2251 3 -2 -1 -31 87. 567. 189. o
2251 1 2 1 31 87. 567. 189. o
2252 3 -2 -1 31 87. 558. 293. <
2252 1 2 1 -31 87. 558. 293. <
2253 3 -3 -1 -31 203. -9. 236. <
2253 2 1 3 -31 203. -9. 236. <
2253 1 3 1 31 203. -9. 236. <
2254 3 -3 -1 31 228. 113. 227. <
2254 2 1 3 31 228. 113. 227. <
2254 1 3 1 -31 228. 113. 227. <
2255 3 -4 -1 -31 287. 784. 283. o
2255 1 4 1 31 287. 784. 283. o
2256 3 -4 -1 31 286. 643. 236. o
2256 1 4 1 -31 286. 643. 236. o
2257 3 -5 -1 -31 724. 737. 312. o
2257 2 1 5 -31 724. 737. 312. o
2257 1 5 1 31 724. 737. 312. o
2258 3 -5 -1 31 735. 784. 255. o
2258 2 1 5 31 735. 784. 255. o
2258 1 5 1 -31 735. 784. 255. o
2259 3 -6 -1 -31 115. 359. 283. <
2259 1 6 1 31 115. 359. 283. <
2260 3 -6 -1 31 115. 463. 274. <
2260 1 6 1 -31 115. 463. 274. <
2261 3 -7 -1 -31 1254. 1333. 331. o
2261 2 1 7 -31 1254. 1333. 331. o
2261 1 7 1 31 1254. 1333. 331. o
2262 3 -7 -1 31 1259. 1229. 312. o
2262 2 1 7 31 1259. 1229. 312. o
2262 1 7 1 -31 1259. 1229. 312. o
2263 3 0 -3 -31 124. -76. 293. <
2263 1 0 3 31 124. -76. 293. <
2264 3 -1 -3 -31 338. 690. 217. o
2264 2 3 1 -31 338. 690. 217. o
2264 1 1 3 31 338. 690. 217. o
2265 3 -2 -3 -31 1100. 1588. 217. o
2265 1 2 3 31 1100. 1588. 217. o
2266 3 -3 -3 -31 741. 822. 302. o
2266 2 3 3 -31 741. 822. 302. o
2266 1 3 3 31 741. 822. 302. o
2267 3 -3 -3 31 739. 832. 359. o
2267 2 3 3 31 739. 832. 359. o
2267 1 3 3 -31 739. 832. 359. o
2268 3 -4 -3 -31 115. 491. 321. <
2268 1 4 3 31 115. 491. 321. <
2269 3 -4 -3 31 115. 369. 265. <
2269 1 4 3 -31 115. 369. 265. <
2270 3 -5 -3 -31 1507. 1474. 321. o
2270 2 3 5 -31 1507. 1474. 321. o
2270 1 5 3 31 1507. 1474. 321. o
2271 3 -5 -3 31 1513. 1607. 283. o
2271 2 3 5 31 1513. 1607. 283. o
2271 1 5 3 -31 1513. 1607. 283. o
2272 3 -6 -3 -31 40. 104. 340. <
2272 1 6 3 31 40. 104. 340. <
2273 3 -6 -3 31 40. 104. 284. <
2273 1 6 3 -31 40. 104. 284. <
2274 3 -7 -3 -31 1216. 1285. 369. o
2274 2 3 7 -31 1216. 1285. 369. o
2274 1 7 3 31 1216. 1285. 369. o
2275 3 -7 -3 31 1215. 1427. 331. o
2275 2 3 7 31 1215. 1427. 331. o
2275 1 7 3 -31 1215. 1427. 331. o
2276 3 0 -5 -31 659. 491. 331. <
2276 1 0 5 31 659. 491. 331. <
2277 3 -1 -5 -31 3889. 3648. 247. o
2277 2 5 1 -31 3889. 3648. 247. o
2277 1 1 5 31 3889. 3648. 247. o
2278 3 -2 -5 -31 101. 491. 246. <
2278 1 2 5 31 101. 491. 246. <
2279 3 -3 -5 -31 3243. 3573. 320. o
2279 2 5 3 -31 3243. 3573. 320. o
2279 1 3 5 31 3243. 3573. 320. o
2280 3 -3 -5 31 3236. 3261. 473. o
2280 2 5 3 31 3236. 3261. 473. o
2280 1 3 5 -31 3236. 3261. 473. o
2281 3 -4 -5 -31 100. 605. 368. <
2281 1 4 5 31 100. 605. 368. <
2282 3 -4 -5 31 99. 501. 387. <
2282 1 4 5 -31 99. 501. 387. <
2283 3 -5 -5 -31 1995. 1834. 388. o
2283 2 5 5 -31 1995. 1834. 388. o
2283 1 5 5 31 1995. 1834. 388. o
2284 3 -5 -5 31 1987. 1361. 332. o
2284 2 5 5 31 1987. 1361. 332. o
2284 1 5 5 -31 1987. 1361. 332. o
2285 3 -6 -5 -31 130. 369. 397. <
2285 1 6 5 31 130. 369. 397. <
2286 3 -6 -5 31 130. 699. 359. <
2286 1 6 5 -31 130. 699. 359. <
2287 3 0 -7 -31 193. 104. 397. <
2287 1 0 7 31 193. 104. 397. <
2288 3 -1 -7 -31 4869. 4603. 285. o
2288 2 7 1 -31 4869. 4603. 285. o
2288 1 1 7 31 4869. 4603. 285. o
2289 3 -2 -7 -31 36. 76. 274. <
2289 1 2 7 31 36. 76. 274. <
2290 3 -3 -7 -31 3253. 3081. 303. o
2290 2 7 3 -31 3253. 3081. 303. o
2290 1 3 7 31 3253. 3081. 303. o
2291 3 0 0 -32 9355. 7694. 499. o
2291 2 0 0 -32 9355. 7694. 499. o
2291 1 0 0 32 9355. 7694. 499. o
2292 3 -2 0 -32 5791. 5312. 342. o
2292 2 0 2 -32 5791. 5312. 342. o
2292 1 2 0 32 5791. 5312. 342. o
2293 3 -2 0 32 5803. 5057. 418. o
2293 2 0 2 32 5803. 5057. 418. o
2293 1 2 0 -32 5803. 5057. 418. o
2294 3 -4 0 -32 577. 312. 378. <
2294 2 0 4 -32 577. 312. 378. <
2294 1 4 0 32 577. 312. 378. <
2295 3 -4 0 32 593. 359. 369. <
2295 2 0 4 32 593. 359. 369. <
2295 1 4 0 -32 593. 359. 369. <
2296 3 -6 0 -32 250. 624. 397. <
2296 2 0 6 -32 250. 624. 397. <
2296 1 6 0 32 250. 624. 397. <
2297 3 -6 0 32 256. 444. 378. <
2297 2 0 6 32 256. 444. 378. <
2297 1 6 0 -32 256. 444. 378. <
2298 3 0 -2 -32 3805. 3006. 239. o
2298 2 2 0 -32 3805. 3006. 239. o
2298 1 0 2 32 3805. 3006. 239. o
2299 3 -1 -2 -32 1264. 1493. 170. o
2299 1 1 2 32 1264. 1493. 170. o
2300 3 -2 -2 -32 1514. 1002. 199. o
2300 2 2 2 -32 1514. 1002. 199. o
2300 1 2 2 32 1514. 1002. 199. o
2301 3 -3 -2 -32 334. 501. 274. <
2301 1 3 2 32 334. 501. 274. <
2302 3 -3 -2 32 335. 529. 331. <
2302 1 3 2 -32 335. 529. 331. <
2303 3 -4 -2 -32 118. 180. 274. <
2303 2 2 4 -32 118. 180. 274. <
2303 1 4 2 32 118. 180. 274. <
2304 3 -4 -2 32 126. 180. 255. <
2304 2 2 4 32 126. 180. 255. <
2304 1 4 2 -32 126. 180. 255. <
2305 3 -5 -2 -32 49. 19. 293. <
2305 1 5 2 32 49. 19. 293. <
2306 3 -5 -2 32 49. -38. 274. <
2306 1 5 2 -32 49. -38. 274. <
2307 3 -6 -2 -32 465. 690. 350. <
2307 2 2 6 -32 465. 690. 350. <
2307 1 6 2 32 465. 690. 350. <
2308 3 -6 -2 32 469. 406. 293. <
2308 2 2 6 32 469. 406. 293. <
2308 1 6 2 -32 469. 406. 293. <
2309 3 -7 -2 -32 13. 406. 397. <
2309 1 7 2 32 13. 406. 397. <
2310 3 -7 -2 32 13. 217. 350. <
2310 1 7 2 -32 13. 217. 350. <
2311 3 0 -4 -32 538. 870. 416. o
2311 2 4 0 -32 538. 870. 416. o
2311 1 0 4 32 538. 870. 416. o
2312 3 -1 -4 -32 1161. 1361. 264. o
2312 1 1 4 32 1161. 1361. 264. o
2313 3 -2 -4 -32 367. 558. 255. o
2313 2 4 2 -32 367. 558. 255. o
2313 1 2 4 32 367. 558. 255. o
2314 3 -3 -4 -32 451. 491. 284. <
2314 1 3 4 32 451. 491. 284. <
2315 3 -3 -4 32 450. 284. 388. <
2315 1 3 4 -32 450. 284. 388. <
2316 3 -4 -4 -32 816. 955. 350. o
2316 2 4 4 -32 816. 955. 350. o
2316 1 4 4 32 816. 955. 350. o
2317 3 -4 -4 32 817. 1191. 340. o
2317 2 4 4 32 817. 1191. 340. o
2317 1 4 4 -32 817. 1191. 340. o
2318 3 -5 -4 -32 30. 161. 340. <
2318 1 5 4 32 30. 161. 340. <
2319 3 -5 -4 32 30. 57. 293. <
2319 1 5 4 -32 30. 57. 293. <
2320 3 -6 -4 -32 638. 888. 387. o
2320 2 4 6 -32 638. 888. 387. o
2320 1 6 4 32 638. 888. 387. o
2321 3 -6 -4 32 639. 671. 331. o
2321 2 4 6 32 639. 671. 331. o
2321 1 6 4 -32 639. 671. 331. o
2322 3 0 -6 -32 3394. 3403. 350. o
2322 2 6 0 -32 3394. 3403. 350. o
2322 1 0 6 32 3394. 3403. 350. o
2323 3 -1 -6 -32 170. 246. 246. <
2323 1 1 6 32 170. 246. 246. <
2324 3 -2 -6 -32 3158. 3478. 254. o
2324 2 6 2 -32 3158. 3478. 254. o
2324 1 2 6 32 3158. 3478. 254. o
2325 3 -3 -6 -32 24. 293. 302. <
2325 1 3 6 32 24. 293. 302. <
2326 3 -4 -6 -32 1604. 1626. 378. o
2326 2 6 4 -32 1604. 1626. 378. o
2326 1 4 6 32 1604. 1626. 378. o
2327 3 -4 -6 32 1600. 1361. 558. o
2327 2 6 4 32 1600. 1361. 558. o
2327 1 4 6 -32 1600. 1361. 558. o
2328 3 -5 -6 -32 3. 302. 406. <
2328 1 5 6 32 3. 302. 406. <
2329 3 -5 -6 32 3. 47. 463. <
2329 1 5 6 -32 3. 47. 463. <
2330 3 0 -1 -33 2963. 2401. 229. o
2330 1 0 1 33 2963. 2401. 229. o
2331 3 -1 -1 -33 3277. 3195. 171. o
2331 2 1 1 -33 3277. 3195. 171. o
2331 1 1 1 33 3277. 3195. 171. o
2332 3 -2 -1 -33 2327. 1522. 200. o
2332 1 2 1 33 2327. 1522. 200. o
2333 3 -3 -1 -33 1265. 1276. 246. o
2333 2 1 3 -33 1265. 1276. 246. o
2333 1 3 1 33 1265. 1276. 246. o
2334 3 -3 -1 33 1274. 1077. 331. o
2334 2 1 3 33 1274. 1077. 331. o
2334 1 3 1 -33 1274. 1077. 331. o
2335 3 -4 -1 -33 1684. 1144. 275. o
2335 1 4 1 33 1684. 1144. 275. o
2336 3 -4 -1 33 1684. 1096. 247. o
2336 1 4 1 -33 1684. 1096. 247. o
2337 3 -5 -1 -33 125. 539. 302. <
2337 2 1 5 -33 125. 539. 302. <
2337 1 5 1 33 125. 539. 302. <
2338 3 -5 -1 33 127. 208. 274. <
2338 2 1 5 33 127. 208. 274. <
2338 1 5 1 -33 127. 208. 274. <
2339 3 -6 -1 -33 582. 558. 312. <
2339 1 6 1 33 582. 558. 312. <
2340 3 -6 -1 33 582. 236. 303. <
2340 1 6 1 -33 582. 236. 303. <
2341 3 -7 -1 -33 42. 397. 369. <
2341 2 1 7 -33 42. 397. 369. <
2341 1 7 1 33 42. 397. 369. <
2342 3 -7 -1 33 43. 19. 340. <
2342 2 1 7 33 43. 19. 340. <
2342 1 7 1 -33 43. 19. 340. <
2343 3 0 -3 -33 1831. 983. 285. o
2343 1 0 3 33 1831. 983. 285. o
2344 3 -1 -3 -33 605. 614. 198. o
2344 2 3 1 -33 605. 614. 198. o
2344 1 1 3 33 605. 614. 198. o
2345 3 -2 -3 -33 2273. 1862. 218. o
2345 1 2 3 33 2273. 1862. 218. o
2346 3 -3 -3 -33 136. 255. 236. <
2346 2 3 3 -33 136. 255. 236. <
2346 1 3 3 33 136. 255. 236. <
2347 3 -3 -3 33 138. 350. 350. <
2347 2 3 3 33 138. 350. 350. <
2347 1 3 3 -33 138. 350. 350. <
2348 3 -4 -3 -33 770. 463. 321. <
2348 1 4 3 33 770. 463. 321. <
2349 3 -4 -3 33 770. 520. 274. <
2349 1 4 3 -33 770. 520. 274. <
2350 3 -5 -3 -33 34. 19. 321. <
2350 2 3 5 -33 34. 19. 321. <
2350 1 5 3 33 34. 19. 321. <
2351 3 -5 -3 33 36. 208. 284. <
2351 2 3 5 33 36. 208. 284. <
2351 1 5 3 -33 36. 208. 284. <
2352 3 -6 -3 -33 826. 510. 331. <
2352 1 6 3 33 826. 510. 331. <
2353 3 -6 -3 33 826. 586. 303. <
2353 1 6 3 -33 826. 586. 303. <
2354 3 0 -5 -33 1768. 1607. 331. o
2354 1 0 5 33 1768. 1607. 331. o
2355 3 -1 -5 -33 154. 180. 236. <
2355 2 5 1 -33 154. 180. 236. <
2355 1 1 5 33 154. 180. 236. <
2356 3 -2 -5 -33 496. 161. 246. <
2356 1 2 5 33 496. 161. 246. <
2357 3 -3 -5 -33 150. 227. 321. <
2357 2 5 3 -33 150. 227. 321. <
2357 1 3 5 33 150. 227. 321. <
2358 3 -4 -5 -33 1188. 1049. 331. o
2358 1 4 5 33 1188. 1049. 331. o
2359 3 -4 -5 33 1188. 1295. 482. o
2359 1 4 5 -33 1188. 1295. 482. o
2360 3 -5 -5 -33 136. 369. 397. <
2360 2 5 5 -33 136. 369. 397. <
2360 1 5 5 33 136. 369. 397. <
2361 3 -5 -5 33 135. 312. 425. <
2361 2 5 5 33 135. 312. 425. <
2361 1 5 5 -33 135. 312. 425. <
2362 3 0 -7 -33 97. 85. 388. <
2362 1 0 7 33 97. 85. 388. <
2363 3 -1 -7 -33 599. 548. 274. <
2363 2 7 1 -33 599. 548. 274. <
2363 1 1 7 33 599. 548. 274. <
2364 3 -2 -7 -33 916. 936. 274. o
2364 1 2 7 33 916. 936. 274. o
2365 3 -3 -7 -33 416. 265. 265. <
2365 2 7 3 -33 416. 265. 265. <
2365 1 3 7 33 416. 265. 265. <
2366 3 0 0 -34 340. 369. 435. <
2366 2 0 0 -34 340. 369. 435. <
2366 1 0 0 34 340. 369. 435. <
2367 3 -2 0 -34 81. -38. 302. <
2367 2 0 2 -34 81. -38. 302. <
2367 1 2 0 34 81. -38. 302. <
2368 3 -4 0 -34 340. 388. 340. <
2368 2 0 4 -34 340. 388. 340. <
2368 1 4 0 34 340. 388. 340. <
2369 3 -4 0 34 337. 255. 350. <
2369 2 0 4 34 337. 255. 350. <
2369 1 4 0 -34 337. 255. 350. <
2370 3 -6 0 -34 205. 85. 444. <
2370 2 0 6 -34 205. 85. 444. <
2370 1 6 0 34 205. 85. 444. <
2371 3 -6 0 34 204. 803. 378. o
2371 2 0 6 34 204. 803. 378. o
2371 1 6 0 -34 204. 803. 378. o
2372 3 0 -2 -34 137. -28. 236. <
2372 2 2 0 -34 137. -28. 236. <
2372 1 0 2 34 137. -28. 236. <
2373 3 -1 -2 -34 2494. 2873. 178. o
2373 1 1 2 34 2494. 2873. 178. o
2374 3 -2 -2 -34 390. 47. 189. <
2374 2 2 2 -34 390. 47. 189. <
2374 1 2 2 34 390. 47. 189. <
2375 3 -3 -2 -34 1643. 1673. 208. o
2375 1 3 2 34 1643. 1673. 208. o
2376 3 -3 -2 34 1644. 1701. 378. o
2376 1 3 2 -34 1644. 1701. 378. o
2377 3 -4 -2 -34 255. 217. 284. <
2377 2 2 4 -34 255. 217. 284. <
2377 1 4 2 34 255. 217. 284. <
2378 3 -4 -2 34 254. 198. 265. <
2378 2 2 4 34 254. 198. 265. <
2378 1 4 2 -34 254. 198. 265. <
2379 3 -5 -2 -34 155. 151. 302. <
2379 1 5 2 34 155. 151. 302. <
2380 3 -5 -2 34 155. 38. 293. <
2380 1 5 2 -34 155. 38. 293. <
2381 3 -6 -2 -34 206. 312. 331. <
2381 2 2 6 -34 206. 312. 331. <
2381 1 6 2 34 206. 312. 331. <
2382 3 -6 -2 34 204. 189. 302. <
2382 2 2 6 34 204. 189. 302. <
2382 1 6 2 -34 204. 189. 302. <
2383 3 -7 -2 -34 131. 113. 397. <
2383 1 7 2 34 131. 113. 397. <
2384 3 -7 -2 34 131. 236. 340. <
2384 1 7 2 -34 131. 236. 340. <
2385 3 0 -4 -34 620. 539. 369. <
2385 2 4 0 -34 620. 539. 369. <
2385 1 0 4 34 620. 539. 369. <
2386 3 -1 -4 -34 4331. 4395. 274. o
2386 1 1 4 34 4331. 4395. 274. o
2387 3 -2 -4 -34 420. 435. 246. <
2387 2 4 2 -34 420. 435. 246. <
2387 1 2 4 34 420. 435. 246. <
2388 3 -3 -4 -34 1355. 1163. 284. o
2388 1 3 4 34 1355. 1163. 284. o
2389 3 -3 -4 34 1355. 1503. 454. o
2389 1 3 4 -34 1355. 1503. 454. o
2390 3 -4 -4 -34 312. 397. 378. <
2390 2 4 4 -34 312. 397. 378. <
2390 1 4 4 34 312. 397. 378. <
2391 3 -4 -4 34 311. 293. 406. <
2391 2 4 4 34 311. 293. 406. <
2391 1 4 4 -34 311. 293. 406. <
2392 3 -5 -4 -34 980. 794. 378. o
2392 1 5 4 34 980. 794. 378. o
2393 3 -5 -4 34 980. 1059. 331. o
2393 1 5 4 -34 980. 1059. 331. o
2394 3 -6 -4 -34 131. 359. 387. <
2394 2 4 6 -34 131. 359. 387. <
2394 1 6 4 34 131. 359. 387. <
2395 3 -6 -4 34 131. 321. 350. <
2395 2 4 6 34 131. 321. 350. <
2395 1 6 4 -34 131. 321. 350. <
2396 3 0 -6 -34 486. 463. 321. <
2396 2 6 0 -34 486. 463. 321. <
2396 1 0 6 34 486. 463. 321. <
2397 3 -1 -6 -34 1427. 1474. 246. o
2397 1 1 6 34 1427. 1474. 246. o
2398 3 -2 -6 -34 411. 454. 255. <
2398 2 6 2 -34 411. 454. 255. <
2398 1 2 6 34 411. 454. 255. <
2399 3 -3 -6 -34 1349. 1465. 274. o
2399 1 3 6 34 1349. 1465. 274. o
2400 3 -4 -6 -34 181. 180. 340. <
2400 2 6 4 -34 181. 180. 340. <
2400 1 4 6 34 181. 180. 340. <
2401 3 -4 -6 34 181. 189. 510. <
2401 2 6 4 34 181. 189. 510. <
2401 1 4 6 -34 181. 189. 510. <
2402 3 0 -1 -35 9135. 8714. 268. o
2402 1 0 1 35 9135. 8714. 268. o
2403 3 -1 -1 -35 106. 142. 161. <
2403 2 1 1 -35 106. 142. 161. <
2403 1 1 1 35 106. 142. 161. <
2404 3 -2 -1 -35 506. 671. 179. o
2404 1 2 1 35 506. 671. 179. o
2405 3 -3 -1 -35 517. 605. 208. o
2405 2 1 3 -35 517. 605. 208. o
2405 1 3 1 35 517. 605. 208. o
2406 3 -3 -1 35 516. 586. 359. <
2406 2 1 3 35 516. 586. 359. <
2406 1 3 1 -35 516. 586. 359. <
2407 3 -4 -1 -35 3426. 3478. 331. o
2407 1 4 1 35 3426. 3478. 331. o
2408 3 -4 -1 35 3427. 3374. 274. o
2408 1 4 1 -35 3427. 3374. 274. o
2409 3 -5 -1 -35 954. 870. 340. o
2409 2 1 5 -35 954. 870. 340. o
2409 1 5 1 35 954. 870. 340. o
2410 3 -5 -1 35 952. 983. 284. o
2410 2 1 5 35 952. 983. 284. o
2410 1 5 1 -35 952. 983. 284. o
2411 3 -6 -1 -35 419. 784. 321. o
2411 1 6 1 35 419. 784. 321. o
2412 3 -6 -1 35 419. 359. 293. <
2412 1 6 1 -35 419. 359. 293. <
2413 3 -7 -1 -35 703. 851. 350. o
2413 2 1 7 -35 703. 851. 350. o
2413 1 7 1 35 703. 851. 350. o
2414 3 -7 -1 35 702. 784. 331. o
2414 2 1 7 35 702. 784. 331. o
2414 1 7 1 -35 702. 784. 331. o
2415 3 0 -3 -35 1830. 1238. 275. o
2415 1 0 3 35 1830. 1238. 275. o
2416 3 -1 -3 -35 1056. 917. 199. o
2416 2 3 1 -35 1056. 917. 199. o
2416 1 1 3 35 1056. 917. 199. o
2417 3 -2 -3 -35 13112. 12930. 239. o
2417 1 2 3 35 13112. 12930. 239. o
2418 3 -3 -3 -35 1197. 1229. 255. o
2418 2 3 3 -35 1197. 1229. 255. o
2418 1 3 3 35 1197. 1229. 255. o
2419 3 -3 -3 35 1195. 1144. 444. o
2419 2 3 3 35 1195. 1144. 444. o
2419 1 3 3 -35 1195. 1144. 444. o
2420 3 -4 -3 -35 155. 198. 321. <
2420 1 4 3 35 155. 198. 321. <
2421 3 -4 -3 35 155. -28. 321. <
2421 1 4 3 -35 155. -28. 321. <
2422 3 -5 -3 -35 1001. 898. 331. o
2422 2 3 5 -35 1001. 898. 331. o
2422 1 5 3 35 1001. 898. 331. o
2423 3 -5 -3 35 999. 1059. 283. o
2423 2 3 5 35 999. 1059. 283. o
2423 1 5 3 -35 999. 1059. 283. o
2424 3 -6 -3 -35 1622. 1456. 350. o
2424 1 6 3 35 1622. 1456. 350. o
2425 3 -6 -3 35 1623. 1758. 321. o
2425 1 6 3 -35 1623. 1758. 321. o
2426 3 0 -5 -35 11384. 10709. 393. o
2426 1 0 5 35 11384. 10709. 393. o
2427 3 -1 -5 -35 2376. 2155. 265. o
2427 2 5 1 -35 2376. 2155. 265. o
2427 1 1 5 35 2376. 2155. 265. o
2428 3 -2 -5 -35 900. 662. 246. o
2428 1 2 5 35 900. 662. 246. o
2429 3 -3 -5 -35 1649. 1616. 359. o
2429 2 5 3 -35 1649. 1616. 359. o
2429 1 3 5 35 1649. 1616. 359. o
2430 3 -4 -5 -35 3722. 3875. 321. o
2430 1 4 5 35 3722. 3875. 321. o
2431 3 -4 -5 35 3723. 4490. 632. o
2431 1 4 5 -35 3723. 4490. 632. o
2432 3 -5 -5 -35 935. 917. 397. o
2432 2 5 5 -35 935. 917. 397. o
2432 1 5 5 35 935. 917. 397. o
2433 3 -5 -5 35 935. 784. 454. <
2433 2 5 5 35 935. 784. 454. <
2433 1 5 5 -35 935. 784. 454. <
2434 3 0 -7 -35 170. 151. 378. <
2434 1 0 7 35 170. 151. 378. <
2435 3 -1 -7 -35 1811. 2013. 283. o
2435 2 7 1 -35 1811. 2013. 283. o
2435 1 1 7 35 1811. 2013. 283. o
2436 3 0 0 -36 3458. 4641. 479. o
2436 2 0 0 -36 3458. 4641. 479. o
2436 1 0 0 36 3458. 4641. 479. o
2437 3 -2 0 -36 4589. 5501. 375. o
2437 2 0 2 -36 4589. 5501. 375. o
2437 1 2 0 36 4589. 5501. 375. o
2438 3 -4 0 -36 2947. 3214. 368. o
2438 2 0 4 -36 2947. 3214. 368. o
2438 1 4 0 36 2947. 3214. 368. o
2439 3 -4 0 36 2942. 2732. 360. o
2439 2 0 4 36 2942. 2732. 360. o
2439 1 4 0 -36 2942. 2732. 360. o
2440 3 -6 0 -36 2317. 1786. 483. o
2440 2 0 6 -36 2317. 1786. 483. o
2440 1 6 0 36 2317. 1786. 483. o
2441 3 -6 0 36 2316. 2117. 444. o
2441 2 0 6 36 2316. 2117. 444. o
2441 1 6 0 -36 2316. 2117. 444. o
2442 3 0 -2 -36 4867. 5359. 262. o
2442 2 2 0 -36 4867. 5359. 262. o
2442 1 0 2 36 4867. 5359. 262. o
2443 3 -1 -2 -36 1642. 1512. 180. o
2443 1 1 2 36 1642. 1512. 180. o
2444 3 -2 -2 -36 3486. 3998. 186. o
2444 2 2 2 -36 3486. 3998. 186. o
2444 1 2 2 36 3486. 3998. 186. o
2445 3 -3 -2 -36 984. 1295. 217. o
2445 1 3 2 36 984. 1295. 217. o
2446 3 -3 -2 36 984. 1002. 378. o
2446 1 3 2 -36 984. 1002. 378. o
2447 3 -4 -2 -36 3532. 3062. 304. o
2447 2 2 4 -36 3532. 3062. 304. o
2447 1 4 2 36 3532. 3062. 304. o
2448 3 -4 -2 36 3534. 3034. 342. o
2448 2 2 4 36 3534. 3034. 342. o
2448 1 4 2 -36 3534. 3034. 342. o
2449 3 -5 -2 -36 138. 198. 312. <
2449 1 5 2 36 138. 198. 312. <
2450 3 -5 -2 36 138. 95. 274. <
2450 1 5 2 -36 138. 95. 274. <
2451 3 -6 -2 -36 1659. 1824. 340. o
2451 2 2 6 -36 1659. 1824. 340. o
2451 1 6 2 36 1659. 1824. 340. o
2452 3 -6 -2 36 1655. 1881. 312. o
2452 2 2 6 36 1655. 1881. 312. o
2452 1 6 2 -36 1655. 1881. 312. o
2453 3 0 -4 -36 3611. 3875. 387. o
2453 2 4 0 -36 3611. 3875. 387. o
2453 1 0 4 36 3611. 3875. 387. o
2454 3 -1 -4 -36 2821. 2533. 275. o
2454 1 1 4 36 2821. 2533. 275. o
2455 3 -2 -4 -36 3994. 3563. 266. o
2455 2 4 2 -36 3994. 3563. 266. o
2455 1 2 4 36 3994. 3563. 266. o
2456 3 -3 -4 -36 1058. 888. 284. o
2456 1 3 4 36 1058. 888. 284. o
2457 3 -4 -4 -36 2183. 2325. 340. o
2457 2 4 4 -36 2183. 2325. 340. o
2457 1 4 4 36 2183. 2325. 340. o
2458 3 -4 -4 36 2183. 2618. 444. o
2458 2 4 4 36 2183. 2618. 444. o
2458 1 4 4 -36 2183. 2618. 444. o
2459 3 -5 -4 -36 531. 794. 416. <
2459 1 5 4 36 531. 794. 416. <
2460 3 -5 -4 36 531. 794. 416. <
2460 1 5 4 -36 531. 794. 416. <
2461 3 0 -6 -36 3008. 2561. 369. o
2461 2 6 0 -36 3008. 2561. 369. o
2461 1 0 6 36 3008. 2561. 369. o
2462 3 -1 -6 -36 1065. 1040. 274. o
2462 1 1 6 36 1065. 1040. 274. o
2463 3 -2 -6 -36 2103. 2127. 274. o
2463 2 6 2 -36 2103. 2127. 274. o
2463 1 2 6 36 2103. 2127. 274. o
2464 3 -3 -6 -36 794. 803. 274. o
2464 1 3 6 36 794. 803. 274. o
2465 3 0 -1 -37 160. 690. 255. o
2465 1 0 1 37 160. 690. 255. o
2466 3 -1 -1 -37 16263. 15104. 238. o
2466 2 1 1 -37 16263. 15104. 238. o
2466 1 1 1 37 16263. 15104. 238. o
2467 3 -2 -1 -37 257. 624. 170. o
2467 1 2 1 37 257. 624. 170. o
2468 3 -3 -1 -37 10187. 9716. 251. o
2468 2 1 3 -37 10187. 9716. 251. o
2468 1 3 1 37 10187. 9716. 251. o
2469 3 -3 -1 37 10179. 10132. 397. o
2469 2 1 3 37 10179. 10132. 397. o
2469 1 3 1 -37 10179. 10132. 397. o
2470 3 -4 -1 -37 124. 331. 274. <
2470 1 4 1 37 124. 331. 274. <
2471 3 -4 -1 37 124. 302. 387. <
2471 1 4 1 -37 124. 302. 387. <
2472 3 -5 -1 -37 4611. 4319. 360. o
2472 2 1 5 -37 4611. 4319. 360. o
2472 1 5 1 37 4611. 4319. 360. o
2473 3 -5 -1 37 4605. 4263. 304. o
2473 2 1 5 37 4605. 4263. 304. o
2473 1 5 1 -37 4605. 4263. 304. o
2474 3 -6 -1 -37 42. -19. 321. <
2474 1 6 1 37 42. -19. 321. <
2475 3 -6 -1 37 42. 321. 312. <
2475 1 6 1 -37 42. 321. 312. <
2476 3 0 -3 -37 405. 813. 283. o
2476 1 0 3 37 405. 813. 283. o
2477 3 -1 -3 -37 8595. 8223. 240. o
2477 2 3 1 -37 8595. 8223. 240. o
2477 1 1 3 37 8595. 8223. 240. o
2478 3 -2 -3 -37 168. 406. 208. <
2478 1 2 3 37 168. 406. 208. <
2479 3 -3 -3 -37 5937. 5822. 284. o
2479 2 3 3 -37 5937. 5822. 284. o
2479 1 3 3 37 5937. 5822. 284. o
2480 3 -4 -3 -37 114. 473. 283. <
2480 1 4 3 37 114. 473. 283. <
2481 3 -4 -3 37 114. 76. 397. <
2481 1 4 3 -37 114. 76. 397. <
2482 3 -5 -3 -37 2797. 2968. 387. o
2482 2 3 5 -37 2797. 2968. 387. o
2482 1 5 3 37 2797. 2968. 387. o
2483 3 -5 -3 37 2797. 2476. 369. o
2483 2 3 5 37 2797. 2476. 369. o
2483 1 5 3 -37 2797. 2476. 369. o
2484 3 0 -5 -37 205. 85. 359. <
2484 1 0 5 37 205. 85. 359. <
2485 3 -1 -5 -37 2836. 2495. 266. o
2485 2 5 1 -37 2836. 2495. 266. o
2485 1 1 5 37 2836. 2495. 266. o
2486 3 -2 -5 -37 159. 208. 265. <
2486 1 2 5 37 159. 208. 265. <
2487 3 -3 -5 -37 2094. 1919. 341. o
2487 2 5 3 -37 2094. 1919. 341. o
2487 1 3 5 37 2094. 1919. 341. o
2488 3 -4 -5 -37 138. 284. 331. <
2488 1 4 5 37 138. 284. 331. <
2489 3 -4 -5 37 138. 633. 529. <
2489 1 4 5 -37 138. 633. 529. <
2490 3 0 0 -38 22091. 21550. 666. o
2490 2 0 0 -38 22091. 21550. 666. o
2490 1 0 0 38 22091. 21550. 666. o
2491 3 -2 0 -38 20742. 21247. 457. o
2491 2 0 2 -38 20742. 21247. 457. o
2491 1 2 0 38 20742. 21247. 457. o
2492 3 -4 0 -38 6811. 6739. 407. o
2492 2 0 4 -38 6811. 6739. 407. o
2492 1 4 0 38 6811. 6739. 407. o
2493 3 -4 0 38 6803. 6692. 558. o
2493 2 0 4 38 6803. 6692. 558. o
2493 1 4 0 -38 6803. 6692. 558. o
2494 3 -6 0 -38 2901. 2798. 473. o
2494 2 0 6 -38 2901. 2798. 473. o
2494 1 6 0 38 2901. 2798. 473. o
2495 3 -6 0 38 2898. 2817. 444. o
2495 2 0 6 38 2898. 2817. 444. o
2495 1 6 0 -38 2898. 2817. 444. o
2496 3 0 -2 -38 18320. 17476. 343. o
2496 2 2 0 -38 18320. 17476. 343. o
2496 1 0 2 38 18320. 17476. 343. o
2497 3 -1 -2 -38 612. 614. 189. o
2497 1 1 2 38 612. 614. 189. o
2498 3 -2 -2 -38 10487. 10179. 221. o
2498 2 2 2 -38 10487. 10179. 221. o
2498 1 2 2 38 10487. 10179. 221. o
2499 3 -3 -2 -38 226. 302. 246. <
2499 1 3 2 38 226. 302. 246. <
2500 3 -4 -2 -38 6487. 6210. 285. o
2500 2 2 4 -38 6487. 6210. 285. o
2500 1 4 2 38 6487. 6210. 285. o
2501 3 -4 -2 38 6482. 6248. 436. o
2501 2 2 4 38 6482. 6248. 436. o
2501 1 4 2 -38 6482. 6248. 436. o
2502 3 -5 -2 -38 28. 406. 312. <
2502 1 5 2 38 28. 406. 312. <
2503 3 -5 -2 38 28. 85. 302. <
2503 1 5 2 -38 28. 85. 302. <
2504 3 0 -4 -38 3451. 3507. 416. o
2504 2 4 0 -38 3451. 3507. 416. o
2504 1 0 4 38 3451. 3507. 416. o
2505 3 -1 -4 -38 726. 718. 274. o
2505 1 1 4 38 726. 718. 274. o
2506 3 -2 -4 -38 4210. 4017. 265. o
2506 2 4 2 -38 4210. 4017. 265. o
2506 1 2 4 38 4210. 4017. 265. o
2507 3 -3 -4 -38 246. 510. 293. <
2507 1 3 4 38 246. 510. 293. <
2508 3 -4 -4 -38 1542. 1853. 330. o
2508 2 4 4 -38 1542. 1853. 330. o
2508 1 4 4 38 1542. 1853. 330. o
2509 3 -4 -4 38 1543. 1550. 529. o
2509 2 4 4 38 1543. 1550. 529. o
2509 1 4 4 -38 1543. 1550. 529. o
2510 3 0 -6 -38 718. 1115. 387. o
2510 2 6 0 -38 718. 1115. 387. o
2510 1 0 6 38 718. 1115. 387. o
2511 3 -1 -6 -38 151. 643. 293. o
2511 1 1 6 38 151. 643. 293. o
2512 3 -2 -6 -38 339. 558. 293. <
2512 2 6 2 -38 339. 558. 293. <
2512 1 2 6 38 339. 558. 293. <
2513 3 0 -1 -39 689. 312. 246. <
2513 1 0 1 39 689. 312. 246. <
2514 3 -1 -1 -39 9169. 9036. 209. o
2514 2 1 1 -39 9169. 9036. 209. o
2514 1 1 1 39 9169. 9036. 209. o
2515 3 -2 -1 -39 158. 161. 180. <
2515 1 2 1 39 158. 161. 180. <
2516 3 -3 -1 -39 4945. 5161. 235. o
2516 2 1 3 -39 4945. 5161. 235. o
2516 1 3 1 39 4945. 5161. 235. o
2517 3 -4 -1 -39 253. 95. 246. <
2517 1 4 1 39 253. 95. 246. <
2518 3 -4 -1 39 253. -19. 388. <
2518 1 4 1 -39 253. -19. 388. <
2519 3 -5 -1 -39 1711. 1938. 340. o
2519 2 1 5 -39 1711. 1938. 340. o
2519 1 5 1 39 1711. 1938. 340. o
2520 3 -5 -1 39 1710. 1512. 303. o
2520 2 1 5 39 1710. 1512. 303. o
2520 1 5 1 -39 1710. 1512. 303. o
2521 3 0 -3 -39 22. -76. 302. <
2521 1 0 3 39 22. -76. 302. <
2522 3 -1 -3 -39 3620. 3516. 227. o
2522 2 3 1 -39 3620. 3516. 227. o
2522 1 1 3 39 3620. 3516. 227. o
2523 3 -2 -3 -39 637. 454. 218. o
2523 1 2 3 39 637. 454. 218. o
2524 3 -3 -3 -39 2227. 2079. 265. o
2524 2 3 3 -39 2227. 2079. 265. o
2524 1 3 3 39 2227. 2079. 265. o
2525 3 -4 -3 -39 86. 284. 293. <
2525 1 4 3 39 86. 284. 293. <
2526 3 -4 -3 39 86. 321. 406. <
2526 1 4 3 -39 86. 321. 406. <
2527 3 -5 -3 -39 767. 747. 378. <
2527 2 3 5 -39 767. 747. 378. <
2527 1 5 3 39 767. 747. 378. <
2528 3 -5 -3 39 766. 718. 463. <
2528 2 3 5 39 766. 718. 463. <
2528 1 5 3 -39 766. 718. 463. <
2529 3 0 -5 -39 403. -85. 388. <
2529 1 0 5 39 403. -85. 388. <
2530 3 -1 -5 -39 514. 728. 274. o
2530 2 5 1 -39 514. 728. 274. o
2530 1 1 5 39 514. 728. 274. o
2531 3 -2 -5 -39 38. -38. 284. <
2531 1 2 5 39 38. -38. 284. <
2532 3 -3 -5 -39 333. 416. 378. <
2532 2 5 3 -39 333. 416. 378. <
2532 1 3 5 39 333. 416. 378. <
2533 3 0 0 -40 446. 529. 558. <
2533 2 0 0 -40 446. 529. 558. <
2533 1 0 0 40 446. 529. 558. <
2534 3 -2 0 -40 759. 463. 369. <
2534 2 0 2 -40 759. 463. 369. <
2534 1 2 0 40 759. 463. 369. <
2535 3 -4 0 -40 165. 113. 331. <
2535 2 0 4 -40 165. 113. 331. <
2535 1 4 0 40 165. 113. 331. <
2536 3 -4 0 40 166. 681. 586. <
2536 2 0 4 40 166. 681. 586. <
2536 1 4 0 -40 166. 681. 586. <
2537 3 0 -2 -40 707. 284. 293. <
2537 2 2 0 -40 707. 284. 293. <
2537 1 0 2 40 707. 284. 293. <
2538 3 -1 -2 -40 487. 548. 198. o
2538 1 1 2 40 487. 548. 198. o
2539 3 -2 -2 -40 238. 132. 199. <
2539 2 2 2 -40 238. 132. 199. <
2539 1 2 2 40 238. 132. 199. <
2540 3 -3 -2 -40 183. 227. 227. <
2540 1 3 2 40 183. 227. 227. <
2541 3 -4 -2 -40 285. 293. 255. <
2541 2 2 4 -40 285. 293. 255. <
2541 1 4 2 40 285. 293. 255. <
2542 3 -4 -2 40 287. 293. 397. <
2542 2 2 4 40 287. 293. 397. <
2542 1 4 2 -40 287. 293. 397. <
2543 3 -5 -2 -40 99. 321. 331. <
2543 1 5 2 40 99. 321. 331. <
2544 3 -5 -2 40 99. 28. 463. <
2544 1 5 2 -40 99. 28. 463. <
2545 3 0 -4 -40 95. 284. 397. <
2545 2 4 0 -40 95. 284. 397. <
2545 1 0 4 40 95. 284. 397. <
2546 3 -1 -4 -40 643. 435. 284. <
2546 1 1 4 40 643. 435. 284. <
2547 3 -2 -4 -40 221. 189. 265. <
2547 2 4 2 -40 221. 189. 265. <
2547 1 2 4 40 221. 189. 265. <
2548 3 -3 -4 -40 475. 378. 274. <
2548 1 3 4 40 475. 378. 274. <
2549 3 -4 -4 -40 22. 189. 331. <
2549 2 4 4 -40 22. 189. 331. <
2549 1 4 4 40 22. 189. 331. <
2550 3 0 -1 -41 69. 151. 265. <
2550 1 0 1 41 69. 151. 265. <
2551 3 -1 -1 -41 2110. 1777. 190. o
2551 2 1 1 -41 2110. 1777. 190. o
2551 1 1 1 41 2110. 1777. 190. o
2552 3 -2 -1 -41 1628. 1578. 189. o
2552 1 2 1 41 1628. 1578. 189. o
2553 3 -3 -1 -41 1094. 974. 218. o
2553 2 1 3 -41 1094. 974. 218. o
2553 1 3 1 41 1094. 974. 218. o
2554 3 -4 -1 -41 50. 236. 246. <
2554 1 4 1 41 50. 236. 246. <
2555 3 -4 -1 41 50. 76. 406. <
2555 1 4 1 -41 50. 76. 406. <
2556 3 -5 -1 -41 389. 454. 369. <
2556 2 1 5 -41 389. 454. 369. <
2556 1 5 1 41 389. 454. 369. <
2557 3 -5 -1 41 390. 57. 435. <
2557 2 1 5 41 390. 57. 435. <
2557 1 5 1 -41 390. 57. 435. <
2558 3 0 -3 -41 5070. 4603. 361. o
2558 1 0 3 41 5070. 4603. 361. o
2559 3 -1 -3 -41 741. 633. 236. o
2559 2 3 1 -41 741. 633. 236. o
2559 1 1 3 41 741. 633. 236. o
2560 3 -2 -3 -41 732. 822. 236. o
2560 1 2 3 41 732. 822. 236. o
2561 3 -3 -3 -41 458. 425. 246. <
2561 2 3 3 -41 458. 425. 246. <
2561 1 3 3 41 458. 425. 246. <
2562 3 -4 -3 -41 1486. 1361. 312. o
2562 1 4 3 41 1486. 1361. 312. o
2563 3 0 -5 -41 961. 643. 425. <
2563 1 0 5 41 961. 643. 425. <
2564 3 -1 -5 -41 88. 548. 264. o
2564 2 5 1 -41 88. 548. 264. o
2564 1 1 5 41 88. 548. 264. o
2565 3 0 0 -42 2090. 2571. 538. o
2565 2 0 0 -42 2090. 2571. 538. o
2565 1 0 0 42 2090. 2571. 538. o
2566 3 -2 0 -42 2379. 2259. 397. o
2566 2 0 2 -42 2379. 2259. 397. o
2566 1 2 0 42 2379. 2259. 397. o
2567 3 -4 0 -42 745. 888. 369. o
2567 2 0 4 -42 745. 888. 369. o
2567 1 4 0 42 745. 888. 369. o
2568 3 -4 0 42 746. 955. 643. <
2568 2 0 4 42 746. 955. 643. <
2568 1 4 0 -42 746. 955. 643. <
2569 3 0 -2 -42 2147. 1692. 294. o
2569 2 2 0 -42 2147. 1692. 294. o
2569 1 0 2 42 2147. 1692. 294. o
2570 3 -1 -2 -42 1180. 974. 208. o
2570 1 1 2 42 1180. 974. 208. o
2571 3 -2 -2 -42 1074. 1276. 208. o
2571 2 2 2 -42 1074. 1276. 208. o
2571 1 2 2 42 1074. 1276. 208. o
2572 3 -3 -2 -42 503. 548. 217. o
2572 1 3 2 42 503. 548. 217. o
2573 3 -4 -2 -42 959. 832. 255. o
2573 2 2 4 -42 959. 832. 255. o
2573 1 4 2 42 959. 832. 255. o
2574 3 -4 -2 42 961. 1219. 510. o
2574 2 2 4 42 961. 1219. 510. o
2574 1 4 2 -42 961. 1219. 510. o
2575 3 0 -4 -42 446. 539. 416. <
2575 2 4 0 -42 446. 539. 416. <
2575 1 0 4 42 446. 539. 416. <
2576 3 -1 -4 -42 1715. 1352. 284. o
2576 1 1 4 42 1715. 1352. 284. o
2577 3 -2 -4 -42 709. 671. 284. o
2577 2 4 2 -42 709. 671. 284. o
2577 1 2 4 42 709. 671. 284. o
2578 3 0 -1 -43 54. 95. 265. <
2578 1 0 1 43 54. 95. 265. <
2579 3 -1 -1 -43 102. 208. 198. <
2579 2 1 1 -43 102. 208. 198. <
2579 1 1 1 43 102. 208. 198. <
2580 3 -2 -1 -43 117. 378. 198. <
2580 1 2 1 43 117. 378. 198. <
2581 3 -3 -1 -43 165. 454. 208. o
2581 2 1 3 -43 165. 454. 208. o
2581 1 3 1 43 165. 454. 208. o
2582 3 -4 -1 -43 21. 359. 255. <
2582 1 4 1 43 21. 359. 255. <
2583 3 0 -3 -43 347. 662. 340. <
2583 1 0 3 43 347. 662. 340. <
2584 3 -1 -3 -43 235. 312. 236. <
2584 2 3 1 -43 235. 312. 236. <
2584 1 1 3 43 235. 312. 236. <
2585 3 -2 -3 -43 118. 189. 255. <
2585 1 2 3 43 118. 189. 255. <
2586 3 -3 -3 -43 303. 510. 255. <
2586 2 3 3 -43 303. 510. 255. <
2586 1 3 3 43 303. 510. 255. <
2587 3 0 0 -44 1841. 1626. 596. o
2587 2 0 0 -44 1841. 1626. 596. o
2587 1 0 0 44 1841. 1626. 596. o
2588 3 -2 0 -44 372. 416. 397. <
2588 2 0 2 -44 372. 416. 397. <
2588 1 2 0 44 372. 416. 397. <
2589 3 0 -2 -44 193. 284. 312. <
2589 2 2 0 -44 193. 284. 312. <
2589 1 0 2 44 193. 284. 312. <
2590 3 -1 -2 -44 147. 246. 227. <
2590 1 1 2 44 147. 246. 227. <
2591 3 -2 -2 -44 421. 350. 227. <
2591 2 2 2 -44 421. 350. 227. <
2591 1 2 2 44 421. 350. 227. <
2592 3 -3 -2 -44 53. 284. 227. <
2592 1 3 2 44 53. 284. 227. <
2593 3 0 -1 -45 4. 246. 293. <
2593 1 0 1 45 4. 246. 293. <
2594 3 -1 -1 -45 1491. 1115. 218. o
2594 2 1 1 -45 1491. 1115. 218. o
2594 1 1 1 45 1491. 1115. 218. o
2595 3 -2 -1 -45 95. 151. 208. <
2595 1 2 1 45 95. 151. 208. <
2596 3 -3 -1 -45 577. 520. 227. o
2596 2 1 3 -45 577. 520. 227. o
2596 1 3 1 45 577. 520. 227. o
2597 3 0 -3 -45 295. 284. 350. <
2597 1 0 3 45 295. 284. 350. <
2598 3 -1 -3 -45 265. 340. 255. <
2598 2 3 1 -45 265. 340. 255. <
2598 1 1 3 45 265. 340. 255. <
2599 3 0 0 -46 870. 945. 416. o
2599 2 0 0 -46 870. 945. 416. o
2599 1 0 0 46 870. 945. 416. o
2600 3 -2 0 -46 357. 605. 406. <
2600 2 0 2 -46 357. 605. 406. <
2600 1 2 0 46 357. 605. 406. <
2601 3 0 -2 -46 306. 302. 331. <
2601 2 2 0 -46 306. 302. 331. <
2601 1 0 2 46 306. 302. 331. <
2602 3 -1 -2 -46 47. 180. 236. <
2602 1 1 2 46 47. 180. 236. <
2603 3 0 -1 -47 396. 548. 312. <
2603 1 0 1 47 396. 548. 312. <

