####################################################################### 
# 
# This file contains crystal structure data downloaded from the 
# Cambridge Structural Database (CSD) hosted by the Cambridge 
# Crystallographic Data Centre (CCDC).
# 
# Full information about CCDC data access policies and citation 
# guidelines are available at http://www.ccdc.cam.ac.uk/access/V1 
# 
# Audit and citation data items may have been added by the CCDC. 
# Please retain this information to preserve the provenance of 
# this file and to allow appropriate attribution of the data. 
# 
#######################################################################

data_6b.IPA3Sn2I7-120K
_audit_block_doi                 10.5517/ccdc.csd.cc1ncds6
_database_code_depnum_ccdc_archive 'CCDC 1530308'
loop_
_citation_id
_citation_doi
_citation_year
1 10.1021/acs.inorgchem.6b02764 2017
_audit_update_record             
;
2017-01-30 deposited with the CCDC.	2022-09-05 downloaded from the CCDC.
;
#=======================================================================

# 5. CHEMICAL DATA

_chemical_name_systematic        
; ?
;
_chemical_name_common            'Isopropylammonium Tin Iodide'
_chemical_formula_moiety         ((CH3)2C(H)NH3)3Sn2I7
_chemical_formula_structural     ?
_chemical_formula_analytical     ?
_chemical_formula_iupac          ?
_chemical_formula_sum            'C9 H30 I7 N3 Sn2'
_chemical_formula_weight         1306.1
_chemical_melting_point          ?
_chemical_compound_source        ?
_chemical_absolute_configuration ?

#=======================================================================

# 6. CRYSTAL DATA

_symmetry_cell_setting           tetragonal
_symmetry_space_group_name_H-M   'P 42 c m'
_symmetry_space_group_name_Hall  'P 4c;-2c'
_symmetry_Int_Tables_number      101

loop_
_space_group_symop_id
_space_group_symop_operation_xyz
1 x,y,z
2 -x,-y,z
3 -y,x,z+1/2
4 y,-x,z+1/2
5 x,-y,z+1/2
6 -x,y,z+1/2
7 -y,-x,z
8 y,x,z

_cell_length_a                   8.9525(3)
_cell_length_b                   8.9525(3)
_cell_length_c                   36.5514(15)
_cell_angle_alpha                90
_cell_angle_beta                 90
_cell_angle_gamma                90
_cell_volume                     2929.49(18)

loop_
_twin_individual_id
_twin_individual_mass_fraction_refined
_twin_individual_twin_matrix_11
_twin_individual_twin_matrix_12
_twin_individual_twin_matrix_13
_twin_individual_twin_matrix_21
_twin_individual_twin_matrix_22
_twin_individual_twin_matrix_23
_twin_individual_twin_matrix_31
_twin_individual_twin_matrix_32
_twin_individual_twin_matrix_33
1 0.5(4) 1 0 0 0 1 0 0 0 1
2 0.5(4) -1 0 0 0 1 0 0 0 -1
3 0.005(5) 0.875 0 1.875 0 -1 0 0.125 0 -0.875

_cell_formula_units_Z            4

_cell_measurement_reflns_used    8253
_cell_measurement_theta_min      1.72
_cell_measurement_theta_max      29.07
_cell_measurement_temperature    120
_cell_special_details            
; ?
;

_exptl_crystal_density_diffrn    2.9614
_exptl_crystal_density_meas      ?
_exptl_crystal_density_method    ?
_exptl_crystal_F_000             2264

_exptl_absorpt_coefficient_mu    9.082
_exptl_crystal_description       'rectangular needle'
_exptl_crystal_size_max          0.0545
_exptl_crystal_size_mid          0.0175
_exptl_crystal_size_min          0.0129
_exptl_crystal_size_rad          ?
_exptl_crystal_colour            Red
_exptl_absorpt_process_details   X-SHAPE
_exptl_absorpt_correction_type   integration
_exptl_absorpt_correction_T_min  0.5665
_exptl_absorpt_correction_T_max  0.8015
loop_
_exptl_crystal_face_index_h
_exptl_crystal_face_index_k
_exptl_crystal_face_index_l
_exptl_crystal_face_perp_dist
? ? ? ?

#=======================================================================

# 7. EXPERIMENTAL DATA

_exptl_special_details           ?

_diffrn_ambient_temperature      120
_diffrn_measurement_device       '2-circle goniometer'
_diffrn_measurement_device_type  'STOE IPDS 2'
_diffrn_detector                 'image plate (34 cm diameter)'
_diffrn_detector_type            STOE
_diffrn_detector_area_resol_mean 6.67
_diffrn_source                   
'sealed X-ray tube, 12 x 0.4 mm long-fine focus'
_diffrn_source_voltage           40
_diffrn_source_current           30
_diffrn_source_power             1.20
_diffrn_radiation_type           'Mo K\a'
_diffrn_radiation_wavelength     0.71073
_diffrn_radiation_monochromator  'plane graphite'
_diffrn_radiation_polarisn_norm  0
_diffrn_radiation_collimation    '0.5 mm diameter, monocapillary'
_diffrn_measurement_method       'rotation method'
_diffrn_measurement_details      
; 180 frames, detector distance = 100 mm
;


_diffrn_reflns_number            25819
_diffrn_reflns_theta_min         2.23
_diffrn_reflns_theta_max         25.21
_diffrn_reflns_theta_full        29.21
_diffrn_measured_fraction_theta_max 0.96
_diffrn_measured_fraction_theta_full 0.98
_diffrn_reflns_av_R_equivalents  0.0974
_diffrn_reflns_av_unetI/netI     0.0507
_diffrn_reflns_limit_h_min       -12
_diffrn_reflns_limit_h_max       11
_diffrn_reflns_limit_k_min       -12
_diffrn_reflns_limit_k_max       12
_diffrn_reflns_limit_l_min       -48
_diffrn_reflns_limit_l_max       48
_diffrn_reflns_reduction_process ?

_diffrn_standards_number         ?
_diffrn_standards_interval_count ?
_diffrn_standards_interval_time  ?
_diffrn_standards_decay_%        ?
loop_
_diffrn_standard_refln_index_h
_diffrn_standard_refln_index_k
_diffrn_standard_refln_index_l
? ? ?

_diffrn_radiation_probe          X-ray

#=======================================================================

# 8. REFINEMENT DATA

_refine_special_details          
; Carbon and Nitrogen atoms were refined isotropically due to the 
  heavily disordered nature of the cations. The C-C and the C-N
  bond distances and the N-C-C and C-C-C_bond angles were restrained to
  1.500(1) Angstrom and 108.00(1) degrees, respectively. The thermal
  parameters of the IPA molecules were restrained so that each cation
  has the same Uiso. The IPA ions inside the perovskite cavity were
  treated as disordered and the hydrogen atoms were not located. 
;

_reflns_number_total             3623
_reflns_number_gt                2800
_reflns_threshold_expression     I>2\s(I)

_refine_ls_structure_factor_coef Fsqd
_refine_ls_R_factor_gt           0.1263
_refine_ls_wR_factor_gt          0.2145
_refine_ls_R_factor_all          0.1546
_refine_ls_wR_factor_ref         0.2198
_refine_ls_goodness_of_fit_ref   3.90
_refine_ls_goodness_of_fit_gt    4.35
_refine_ls_restrained_S_gt       ?
_refine_ls_restrained_S_all      ?
_refine_ls_number_reflns         3623
_refine_ls_number_parameters     81
_refine_ls_number_restraints     10
_refine_ls_number_constraints    63
_refine_ls_weighting_scheme      sigma
_refine_ls_weighting_details     w=1/(\s^2^(I)+0.0004I^2^)
_refine_ls_hydrogen_treatment    constr
_refine_ls_shift/su_max          0.0491
_refine_ls_shift/su_mean         0.0029
_refine_diff_density_max         8.46
_refine_diff_density_min         -4.76
_refine_ls_extinction_method     none
_refine_ls_extinction_coef       ?
_refine_ls_abs_structure_details 
;  1631 of Friedel pairs used in the refinement
;
_refine_ls_abs_structure_Flack   ?
_refine_ls_abs_structure_Rogers  ?

loop_
_atom_type_symbol
_atom_type_scat_dispersion_real
_atom_type_scat_dispersion_imag
_atom_type_scat_source
C 0.0033 0.0016 'International Tables Vol C tables 4.2.6.8 and 6.1.1.1'
H 0.0000 0.0000 'International Tables Vol C tables 4.2.6.8 and 6.1.1.1'
I -0.4742 1.8119 'International Tables Vol C tables 4.2.6.8 and 6.1.1.1'
N 0.0061 0.0033 'International Tables Vol C tables 4.2.6.8 and 6.1.1.1'
Sn -0.6537 1.4246 'International Tables Vol C tables 4.2.6.8 and 6.1.1.1'

_computing_data_collection       'STOE X-AREA'
_computing_cell_refinement       'STOE X-AREA'
_computing_data_reduction        'STOE X-RED'
_computing_structure_solution    Superflip
_computing_structure_refinement  Jana2006
_computing_molecular_graphics    ?
_computing_publication_material  ?

loop_
_restr_distance_atom_site_label_1
_restr_distance_site_symmetry_1
_restr_distance_atom_site_label_2
_restr_distance_site_symmetry_2
_restr_distance_target
_restr_distance_target_weight_param
N1 . C1 . 1.5 0.001
C1 . C2 . 1.5 0.001
N2 . C3 . 1.5 0.001
C3 . C4 . 1.5 0.001
N3 . C5 . 1.5 0.001
C5 . C6 . 1.5 0.001

loop_
_restr_angle_atom_site_label_1
_restr_angle_site_symmetry_1
_restr_angle_atom_site_label_2
_restr_angle_site_symmetry_2
_restr_angle_atom_site_label_3
_restr_angle_site_symmetry_3
_restr_angle_target
_restr_angle_target_weight_param
N3 . C5 . C6 . 108 0.01
N1 . C1 . C2 . 108 0.01
C6 . C5 . C6 8_555 114 0.01
C2 . C1 . C2 8_555 114 0.01

loop_
_restr_torsion_atom_site_label_1
_restr_torsion_site_symmetry_1
_restr_torsion_atom_site_label_2
_restr_torsion_site_symmetry_2
_restr_torsion_atom_site_label_3
_restr_torsion_site_symmetry_3
_restr_torsion_atom_site_label_4
_restr_torsion_site_symmetry_4
_restr_torsion_angle_target
_restr_torsion_weight_param
? ? ? ? ? ? ? ? ? ?

loop_
_restr_equal_distance_atom_site_label_1
_restr_equal_distance_site_symmetry_1
_restr_equal_distance_atom_site_label_2
_restr_equal_distance_site_symmetry_2
_restr_equal_distance_class_class_id
_restr_equal_distance_class_target_weight_param
? ? ? ? ? ?

loop_
_restr_equal_angle_atom_site_label_1
_restr_equal_angle_site_symmetry_1
_restr_equal_angle_atom_site_label_2
_restr_equal_angle_site_symmetry_2
_restr_equal_angle_atom_site_label_3
_restr_equal_angle_site_symmetry_3
_restr_equal_angle_class_class_id
_restr_equal_angle_class_target_weight_param
? ? ? ? ? ? ? ?

loop_
_restr_equal_torsion_atom_site_label_1
_restr_equal_torsion_site_symmetry_1
_restr_equal_torsion_atom_site_label_2
_restr_equal_torsion_site_symmetry_2
_restr_equal_torsion_atom_site_label_3
_restr_equal_torsion_site_symmetry_3
_restr_equal_torsion_atom_site_label_4
_restr_equal_torsion_site_symmetry_4
_restr_equal_torsion_class_class_id
_restr_equal_torsion_class_target_weight_param
? ? ? ? ? ? ? ? ? ?


#=======================================================================

# 9. ATOMIC COORDINATES AND DISPLACEMENT PARAMETERS

loop_
_atom_site_label
_atom_site_type_symbol
_atom_site_fract_x
_atom_site_fract_y
_atom_site_fract_z
_atom_site_adp_type
_atom_site_U_iso_or_equiv
_atom_site_site_symmetry_multiplicity
_atom_site_occupancy
_atom_site_calc_flag
_atom_site_refinement_flags
_atom_site_disorder_assembly
_atom_site_disorder_group
Sn1 Sn 0.7473(5) 0.2527(5) 0.30145(17) Uani 0.0454(13) 4 1 d . . .
Sn2 Sn 0.2459(5) 0.2459(5) -0.00539(17) Uani 0.0436(13) 4 1 d . . .
I1 I 0.5 0.5 0.3160(2) Uani 0.0493(17) 2 1 d . . .
I2 I 0.6851(4) 0.3149(4) 0.22045(16) Uani 0.0483(10) 4 1 d . . .
I3 I 0.5 0 0.2991(2) Uani 0.068(3) 4 1 d . . .
I4 I 0 0 0.2862(3) Uani 0.066(3) 2 1 d . . .
I5 I 0.1990(6) 0.1990(6) 0.07598(15) Uani 0.118(2) 4 1 d . . .
I6 I 0 0.5 -0.00058(17) Uani 0.056(2) 4 1 d . . .
I7 I 0 0 -0.0137(3) Uani 0.067(3) 2 1 d . . .
I8 I -0.5 0.5 0.0120(3) Uani 0.072(4) 2 1 d . . .
I9 I 0.2506(16) 0.2506(16) -0.1024(3) Uani 0.1273(14) 4 1 d . . .
N1 N 0.292(7) 0.292(7) 0.2389(17) Uiso 0.135(18) 4 1 d . . .
C1 C 0.273(5) 0.273(5) 0.1984(16) Uiso 0.135(18) 4 1 d . . .
C2 C 0.116(5) 0.314(5) 0.1887(18) Uiso 0.135(18) 8 1 d . . .
N2 N -0.230(4) 0.230(4) 0.0552(8) Uiso 0.035(6) 4 1 d . . .
C3 C -0.242(3) 0.242(3) 0.0960(8) Uiso 0.035(6) 4 1 d . . .
C4 C -0.400(3) 0.223(3) 0.1093(10) Uiso 0.035(6) 8 1 d . . .
N3 N 0.212848 0.212848 0.372397 Uiso 0.39(6) 4 1 d . . .
C5 C 0.283(8) 0.283(8) 0.405(2) Uiso 0.39(6) 4 1 d . . .
C6 C 0.163(13) 0.361(13) 0.4266(14) Uiso 0.39(6) 8 1 d . . .
H1n1 H 0.30115 0.204372 0.249064 Uiso 0.1618 8 0.5 d . . .
H2n1 H 0.371094 0.34487 0.243311 Uiso 0.1618 8 0.5 d . . .
H3n1 H 0.213693 0.336696 0.247837 Uiso 0.1618 8 0.5 d . . .
H1c1 H 0.337544 0.337544 0.184431 Uiso 0.1618 4 1 d . . .
H1c2 H 0.101473 0.304109 0.162798 Uiso 0.1618 8 1 d . . .
H2c2 H 0.047802 0.249529 0.201373 Uiso 0.1618 8 1 d . . .
H3c2 H 0.097028 0.416013 0.195769 Uiso 0.1618 8 1 d . . .
H1n2 H -0.231044 0.135882 0.048974 Uiso 0.0417 8 0.5 d . . .
H2n2 H -0.304294 0.275717 0.044991 Uiso 0.0417 8 0.5 d . . .
K3n2 H -0.146199 0.269938 0.048054 Uiso 0.0417 8 0.5 d . . .
H1c3 H -0.17027 0.17027 0.104183 Uiso 0.0417 4 1 d . . .
H1c4 H -0.410847 0.271862 0.132595 Uiso 0.0417 8 1 d . . .
H2c4 H -0.46741 0.267409 0.092019 Uiso 0.0417 8 1 d . . .
H3c4 H -0.421701 0.119002 0.111842 Uiso 0.0417 8 1 d . . .

loop_
_atom_site_aniso_label
_atom_site_aniso_type_symbol
_atom_site_aniso_U_11
_atom_site_aniso_U_22
_atom_site_aniso_U_33
_atom_site_aniso_U_12
_atom_site_aniso_U_13
_atom_site_aniso_U_23
Sn1 Sn 0.0459(18) 0.0459(18) 0.044(3) -0.002(2) -0.002(2) 0.002(2)
Sn2 Sn 0.0432(17) 0.0432(17) 0.044(3) 0.002(2) 0.012(2) 0.012(2)
I1 I 0.055(3) 0.055(3) 0.037(3) 0.015(3) 0 0
I2 I 0.0421(10) 0.0421(10) 0.061(3) -0.009(2) 0.0002(19) -0.0002(19)
I3 I 0.040(4) 0.040(4) 0.123(6) -0.014(2) 0 0
I4 I 0.044(3) 0.044(3) 0.110(9) 0.008(3) 0 0
I5 I 0.168(4) 0.168(4) 0.0164(19) -0.040(6) -0.001(2) -0.001(2)
I6 I 0.040(3) 0.043(3) 0.085(4) 0.011(2) 0 0
I7 I 0.033(2) 0.033(2) 0.134(8) -0.012(3) 0 0
I8 I 0.042(3) 0.042(3) 0.131(10) -0.009(3) 0 0
I9 I 0.158(3) 0.158(3) 0.065(2) 0.021(4) 0.034(2) 0.034(2)

loop_
_jana_atom_site_ADP_C_label
_jana_atom_site_ADP_C_type_symbol
_jana_atom_site_ADP_C_111
_jana_atom_site_ADP_C_112
_jana_atom_site_ADP_C_113
_jana_atom_site_ADP_C_122
_jana_atom_site_ADP_C_123
_jana_atom_site_ADP_C_133
_jana_atom_site_ADP_C_222
_jana_atom_site_ADP_C_223
_jana_atom_site_ADP_C_233
_jana_atom_site_ADP_C_333
? ? ? ? ? ? ? ? ? ? ? ?

loop_
_jana_atom_site_ADP_D_label
_jana_atom_site_ADP_D_type_symbol
_jana_atom_site_ADP_D_1111
_jana_atom_site_ADP_D_1112
_jana_atom_site_ADP_D_1113
_jana_atom_site_ADP_D_1122
_jana_atom_site_ADP_D_1123
_jana_atom_site_ADP_D_1133
_jana_atom_site_ADP_D_1222
_jana_atom_site_ADP_D_1223
_jana_atom_site_ADP_D_1233
_jana_atom_site_ADP_D_1333
_jana_atom_site_ADP_D_2222
_jana_atom_site_ADP_D_2223
_jana_atom_site_ADP_D_2233
_jana_atom_site_ADP_D_2333
_jana_atom_site_ADP_D_3333
? ? ? ? ? ? ? ? ? ? ? ? ? ? ? ? ?

loop_
_jana_atom_site_ADP_E_label
_jana_atom_site_ADP_E_type_symbol
_jana_atom_site_ADP_E_11111
_jana_atom_site_ADP_E_11112
_jana_atom_site_ADP_E_11113
_jana_atom_site_ADP_E_11122
_jana_atom_site_ADP_E_11123
_jana_atom_site_ADP_E_11133
_jana_atom_site_ADP_E_11222
_jana_atom_site_ADP_E_11223
_jana_atom_site_ADP_E_11233
_jana_atom_site_ADP_E_11333
_jana_atom_site_ADP_E_12222
_jana_atom_site_ADP_E_12223
_jana_atom_site_ADP_E_12233
_jana_atom_site_ADP_E_12333
_jana_atom_site_ADP_E_13333
_jana_atom_site_ADP_E_22222
_jana_atom_site_ADP_E_22223
_jana_atom_site_ADP_E_22233
_jana_atom_site_ADP_E_22333
_jana_atom_site_ADP_E_23333
_jana_atom_site_ADP_E_33333
? ? ? ? ? ? ? ? ? ? ? ? ? ? ? ? ? ? ? ? ? ? ?

loop_
_jana_atom_site_ADP_F_label
_jana_atom_site_ADP_F_type_symbol
_jana_atom_site_ADP_F_111111
_jana_atom_site_ADP_F_111112
_jana_atom_site_ADP_F_111113
_jana_atom_site_ADP_F_111122
_jana_atom_site_ADP_F_111123
_jana_atom_site_ADP_F_111133
_jana_atom_site_ADP_F_111222
_jana_atom_site_ADP_F_111223
_jana_atom_site_ADP_F_111233
_jana_atom_site_ADP_F_111333
_jana_atom_site_ADP_F_112222
_jana_atom_site_ADP_F_112223
_jana_atom_site_ADP_F_112233
_jana_atom_site_ADP_F_112333
_jana_atom_site_ADP_F_113333
_jana_atom_site_ADP_F_122222
_jana_atom_site_ADP_F_122223
_jana_atom_site_ADP_F_122233
_jana_atom_site_ADP_F_122333
_jana_atom_site_ADP_F_123333
_jana_atom_site_ADP_F_133333
_jana_atom_site_ADP_F_222222
_jana_atom_site_ADP_F_222223
_jana_atom_site_ADP_F_222233
_jana_atom_site_ADP_F_222333
_jana_atom_site_ADP_F_223333
_jana_atom_site_ADP_F_233333
_jana_atom_site_ADP_F_333333
? ? ? ? ? ? ? ? ? ? ? ? ? ? ? ? ? ? ? ? ? ? ? ? ? ? ? ? ? ?


#=======================================================================

# 10. MOLECULAR GEOMETRY


loop_
_geom_bond_atom_site_label_1
_geom_bond_atom_site_label_2
_geom_bond_site_symmetry_1
_geom_bond_site_symmetry_2
_geom_bond_distance
_geom_bond_publ_flag
Sn1 I1 . . 3.175(5) ?
Sn1 I2 . . 3.063(8) ?
Sn1 I3 . . 3.167(5) ?
Sn1 I3 . 7_665 3.167(5) ?
Sn1 I4 . 1_655 3.248(5) ?
Sn1 I9 . 3_655 3.516(14) ?
Sn2 I5 . . 3.033(8) ?
Sn2 I6 . . 3.171(5) ?
Sn2 I6 . 7_655 3.171(5) ?
Sn2 I7 . . 3.128(5) ?
Sn2 I8 . 1_655 3.279(5) ?
Sn2 I9 . . 3.545(14) ?
I1 N1 . . 3.86(6) ?
I1 N1 . 2_665 3.86(6) ?
I1 N3 . . 4.180(4) ?
I1 N3 . 2_665 4.180(4) ?
I2 N1 . . 3.59(6) ?
I2 N1 . 2_665 3.59(6) ?
I3 N1 . . 3.89(6) ?
I3 N1 . 2_655 3.89(6) ?
I3 N3 . . 4.173(5) ?
I3 N3 . 2_655 4.173(5) ?
I4 N1 . . 4.08(6) ?
I4 N1 . 2_555 4.08(6) ?
I4 N3 . . 4.146(8) ?
I4 N3 . 2_555 4.146(8) ?
I5 N2 . . 3.92(3) ?
I5 N2 . 2_555 3.92(3) ?
I6 N2 . . 3.77(3) ?
I6 N2 . 2_565 3.77(3) ?
I7 N2 . . 3.85(3) ?
I7 N2 . 2_555 3.85(3) ?
I8 N2 . . 3.77(3) ?
I8 N2 . 2_465 3.77(3) ?
I9 N3 . 3_554 4.264(14) ?
I9 N3 . 4_554 4.264(14) ?
N1 C1 . . 1.50(9) ?
C1 C2 . . 1.50(6) ?
C1 C2 . 8_555 1.50(6) ?
N2 C3 . . 1.50(4) ?
C3 C4 . . 1.50(4) ?
C3 C4 . 7_555 1.50(4) ?
N3 C5 . . 1.50(7) ?
C5 C6 . . 1.50(13) ?
C5 C6 . 8_555 1.50(13) ?

loop_
_geom_angle_atom_site_label_1
_geom_angle_atom_site_label_2
_geom_angle_atom_site_label_3
_geom_angle_site_symmetry_1
_geom_angle_site_symmetry_2
_geom_angle_site_symmetry_3
_geom_angle
_geom_angle_publ_flag
I1 Sn1 I2 . . . 84.7(2) ?
I1 Sn1 I3 . . . 90.88(13) ?
I1 Sn1 I3 . . 7_665 90.88(13) ?
I1 Sn1 I4 . . 1_655 179.7(3) ?
I1 Sn1 I9 . . 3_655 80.8(3) ?
I2 Sn1 I3 . . . 88.7(2) ?
I2 Sn1 I3 . . 7_665 88.7(2) ?
I2 Sn1 I4 . . 1_655 95.0(2) ?
I2 Sn1 I9 . . 3_655 165.6(3) ?
I3 Sn1 I3 . . 7_665 176.7(3) ?
I3 Sn1 I4 . . 1_655 89.11(13) ?
I3 Sn1 I9 . . 3_655 91.5(3) ?
I3 Sn1 I4 7_665 . 1_655 89.11(13) ?
I3 Sn1 I9 7_665 . 3_655 91.5(3) ?
I4 Sn1 I9 1_655 . 3_655 99.4(3) ?
I5 Sn2 I6 . . . 87.1(2) ?
I5 Sn2 I6 . . 7_655 87.1(2) ?
I5 Sn2 I7 . . . 84.3(2) ?
I5 Sn2 I8 . . 1_655 90.1(3) ?
I5 Sn2 I9 . . . 169.7(3) ?
I6 Sn2 I6 . . 7_655 173.4(3) ?
I6 Sn2 I7 . . . 91.25(12) ?
I6 Sn2 I8 . . 1_655 88.46(12) ?
I6 Sn2 I9 . . . 93.2(3) ?
I6 Sn2 I7 7_655 . . 91.25(12) ?
I6 Sn2 I8 7_655 . 1_655 88.46(12) ?
I6 Sn2 I9 7_655 . . 93.2(3) ?
I7 Sn2 I8 . . 1_655 174.4(3) ?
I7 Sn2 I9 . . . 85.4(3) ?
I8 Sn2 I9 1_655 . . 100.2(3) ?
Sn1 I1 Sn1 . . 2_665 160.8(3) ?
Sn1 I1 N1 . . . 83.0(9) ?
Sn1 I1 N1 . . 2_665 83.0(9) ?
Sn1 I1 N3 . . . 94.73(11) ?
Sn1 I1 N3 . . 2_665 94.73(11) ?
Sn1 I1 N1 2_665 . . 83.0(9) ?
Sn1 I1 N1 2_665 . 2_665 83.0(9) ?
Sn1 I1 N3 2_665 . . 94.73(11) ?
Sn1 I1 N3 2_665 . 2_665 94.73(11) ?
N1 I1 N1 . . 2_665 86.2(13) ?
N1 I1 N3 . . . 76.5(9) ?
N1 I1 N3 . . 2_665 162.7(9) ?
N1 I1 N3 2_665 . . 162.7(9) ?
N1 I1 N3 2_665 . 2_665 76.5(9) ?
N3 I1 N3 . . 2_665 120.87(18) ?
Sn1 I2 N1 . . . 89.2(10) ?
Sn1 I2 N1 . . 2_665 89.2(10) ?
N1 I2 N1 . . 2_665 94.5(14) ?
Sn1 I3 Sn1 . . 2_655 176.9(3) ?
Sn1 I3 N1 . . . 82.6(9) ?
Sn1 I3 N1 . . 2_655 99.2(9) ?
Sn1 I3 N3 . . . 94.99(14) ?
Sn1 I3 N3 . . 2_655 83.01(13) ?
Sn1 I3 N1 2_655 . . 99.2(9) ?
Sn1 I3 N1 2_655 . 2_655 82.6(9) ?
Sn1 I3 N3 2_655 . . 83.01(13) ?
Sn1 I3 N3 2_655 . 2_655 94.99(14) ?
N1 I3 N1 . . 2_655 111.1(13) ?
N1 I3 N3 . . . 76.2(9) ?
N1 I3 N3 . . 2_655 164.7(9) ?
N1 I3 N3 2_655 . . 164.7(9) ?
N1 I3 N3 2_655 . 2_655 76.2(9) ?
N3 I3 N3 . . 2_655 100.14(17) ?
Sn1 I4 Sn1 1_455 . 2_655 160.2(4) ?
Sn1 I4 N1 1_455 . . 94.2(9) ?
Sn1 I4 N1 1_455 . 2_555 94.2(9) ?
Sn1 I4 N3 1_455 . . 82.50(17) ?
Sn1 I4 N3 1_455 . 2_555 82.50(17) ?
Sn1 I4 N1 2_655 . . 94.2(9) ?
Sn1 I4 N1 2_655 . 2_555 94.2(9) ?
Sn1 I4 N3 2_655 . . 82.50(17) ?
Sn1 I4 N3 2_655 . 2_555 82.50(17) ?
N1 I4 N1 . . 2_555 129.8(13) ?
N1 I4 N3 . . . 74.5(9) ?
N1 I4 N3 . . 2_555 155.6(9) ?
N1 I4 N3 2_555 . . 155.6(9) ?
N1 I4 N3 2_555 . 2_555 74.5(9) ?
N3 I4 N3 . . 2_555 81.08(18) ?
Sn2 I5 N2 . . . 86.3(5) ?
Sn2 I5 N2 . . 2_555 86.3(5) ?
N2 I5 N2 . . 2_555 95.7(7) ?
Sn2 I6 Sn2 . . 2_565 173.6(3) ?
Sn2 I6 N2 . . . 87.0(5) ?
Sn2 I6 N2 . . 2_565 96.4(5) ?
Sn2 I6 N2 2_565 . . 96.4(5) ?
Sn2 I6 N2 2_565 . 2_565 87.0(5) ?
N2 I6 N2 . . 2_565 114.6(7) ?
Sn2 I7 Sn2 . . 2_555 168.9(4) ?
Sn2 I7 N2 . . . 86.4(5) ?
Sn2 I7 N2 . . 2_555 86.4(5) ?
Sn2 I7 N2 2_555 . . 86.4(5) ?
Sn2 I7 N2 2_555 . 2_555 86.4(5) ?
N2 I7 N2 . . 2_555 98.2(7) ?
Sn2 I8 Sn2 1_455 . 2_565 157.7(4) ?
Sn2 I8 N2 1_455 . . 94.7(5) ?
Sn2 I8 N2 1_455 . 2_465 94.7(5) ?
Sn2 I8 N2 2_565 . . 94.7(5) ?
Sn2 I8 N2 2_565 . 2_465 94.7(5) ?
N2 I8 N2 . . 2_465 130.4(7) ?
Sn1 I9 Sn2 4_564 . . 179.5(5) ?
Sn1 I9 N3 4_564 . 3_554 77.8(3) ?
Sn1 I9 N3 4_564 . 4_554 77.8(3) ?
Sn2 I9 N3 . . 3_554 101.8(3) ?
Sn2 I9 N3 . . 4_554 101.8(3) ?
N3 I9 N3 3_554 . 4_554 78.4(2) ?
I1 N1 I2 . . . 68.6(11) ?
I1 N1 I2 . . 2_665 68.6(11) ?
I1 N1 I3 . . . 71.3(11) ?
I1 N1 I3 . . 7_565 71.3(11) ?
I1 N1 I4 . . . 108.0(15) ?
I1 N1 C1 . . . 146(4) ?
I2 N1 I2 . . 2_665 81.5(13) ?
I2 N1 I3 . . . 71.0(11) ?
I2 N1 I3 . . 7_565 137.4(18) ?
I2 N1 I4 . . . 138.1(18) ?
I2 N1 C1 . . . 86(3) ?
I2 N1 I3 2_665 . . 137.4(18) ?
I2 N1 I3 2_665 . 7_565 71.0(11) ?
I2 N1 I4 2_665 . . 138.1(18) ?
I2 N1 C1 2_665 . . 86(3) ?
I3 N1 I3 . . 7_565 108.9(15) ?
I3 N1 I4 . . . 68.7(10) ?
I3 N1 C1 . . . 123(3) ?
I3 N1 I4 7_565 . . 68.7(10) ?
I3 N1 C1 7_565 . . 123(3) ?
I4 N1 C1 . . . 106(3) ?
N1 C1 C2 . . . 108(5) ?
N1 C1 C2 . . 8_555 108(5) ?
C2 C1 C2 . . 8_555 114(4) ?
I5 N2 I5 . . 2_555 80.0(6) ?
I5 N2 I6 . . . 67.4(5) ?
I5 N2 I6 . . 7_555 133.9(9) ?
I5 N2 I7 . . . 64.3(5) ?
I5 N2 I8 . . . 139.0(9) ?
I5 N2 C3 . . . 83.5(16) ?
I5 N2 I6 2_555 . . 133.9(9) ?
I5 N2 I6 2_555 . 7_555 67.4(5) ?
I5 N2 I7 2_555 . . 64.3(5) ?
I5 N2 I8 2_555 . . 139.0(9) ?
I5 N2 C3 2_555 . . 83.5(16) ?
I6 N2 I6 . . 7_555 114.0(8) ?
I6 N2 I7 . . . 72.4(6) ?
I6 N2 I8 . . . 73.2(6) ?
I6 N2 C3 . . . 122.0(19) ?
I6 N2 I7 7_555 . . 72.4(6) ?
I6 N2 I8 7_555 . . 73.2(6) ?
I6 N2 C3 7_555 . . 122.0(19) ?
I7 N2 I8 . . . 114.3(8) ?
I7 N2 C3 . . . 137.1(19) ?
I8 N2 C3 . . . 108.6(18) ?
N2 C3 C4 . . . 113(3) ?
N2 C3 C4 . . 7_555 113(3) ?
C4 C3 C4 . . 7_555 96(2) ?
I1 N3 I3 . . . 65.50(6) ?
I1 N3 I3 . . 7_565 65.50(6) ?
I1 N3 I4 . . . 100.97(13) ?
I1 N3 I9 . . 3_555 131.03(19) ?
I1 N3 I9 . . 4_555 131.03(19) ?
I1 N3 C5 . . . 83(3) ?
I3 N3 I3 . . 7_565 98.66(12) ?
I3 N3 I4 . . . 65.51(8) ?
I3 N3 I9 . . 3_555 140.76(19) ?
I3 N3 I9 . . 4_555 69.25(19) ?
I3 N3 C5 . . . 117(3) ?
I3 N3 I4 7_565 . . 65.51(8) ?
I3 N3 I9 7_565 . 3_555 69.25(19) ?
I3 N3 I9 7_565 . 4_555 140.76(19) ?
I3 N3 C5 7_565 . . 117(3) ?
I4 N3 I9 . . 3_555 75.74(19) ?
I4 N3 I9 . . 4_555 75.74(19) ?
I4 N3 C5 . . . 176(3) ?
I9 N3 I9 3_555 . 4_555 96.2(3) ?
I9 N3 C5 3_555 . . 102(3) ?
I9 N3 C5 4_555 . . 102(3) ?
N3 C5 C6 . . . 108(6) ?
N3 C5 C6 . . 8_555 108(6) ?
C6 C5 C6 . . 8_555 114(7) ?

loop_
_geom_torsion_atom_site_label_1
_geom_torsion_atom_site_label_2
_geom_torsion_atom_site_label_3
_geom_torsion_atom_site_label_4
_geom_torsion_site_symmetry_1
_geom_torsion_site_symmetry_2
_geom_torsion_site_symmetry_3
_geom_torsion_site_symmetry_4
_geom_torsion
_geom_torsion_publ_flag
? ? ? ? ? ? ? ? ? ?

loop_
_geom_hbond_atom_site_label_D
_geom_hbond_atom_site_label_H
_geom_hbond_atom_site_label_A
_geom_hbond_site_symmetry_D
_geom_hbond_site_symmetry_H
_geom_hbond_site_symmetry_A
_geom_hbond_distance_DH
_geom_hbond_distance_HA
_geom_hbond_distance_DA
_geom_hbond_angle_DHA
_geom_hbond_publ_flag
C4 H3c4 min5 . . 7_555 0.96 1.28 2.19(3) 155.43 ?


#=======================================================================

# 11. STRUCTURE-FACTOR LIST

loop_
_refln_index_h
_refln_index_k
_refln_index_l
_refln_F_squared_calc
_refln_F_squared_meas
_refln_F_squared_sigma
_refln_observed_status
1 1 0 416. 1284. 600. <
0 2 0 32483. 16263. 783. o
1 3 0 6120. 3537. 335. o
3 3 0 28556. 16232. 624. o
0 4 0 880827. 1005430. 18643. o
2 4 0 30512. 46042. 823. o
4 4 0 417490. 508386. 9043. o
1 5 0 3359. 1453. 246. o
3 5 0 17853. 12979. 327. o
5 5 0 9877. 6368. 407. o
0 6 0 53753. 82778. 1408. o
2 6 0 259945. 256261. 951. o
4 6 0 19445. 20221. 269. o
6 6 0 134246. 141178. 119. o
1 7 0 322. 779. 231. o
3 7 0 921. 347. 253. <
5 7 0 1675. 1979. 241. o
7 7 0 283. 1021. 452. <
0 8 0 92787. 70452. 1113. o
2 8 0 26481. 35652. 691. o
4 8 0 84404. 82557. 518. o
6 8 0 3324. 1884. 329. o
1 9 0 155. 347. 263. <
3 9 0 114. 916. 305. <
5 9 0 67. 1253. 304. o
0 10 0 11419. 13189. 428. o
2 10 0 33538. 24726. 515. o
1 1 1 251212. 219272. 2519. o
1 1 -1 251415. 201420. 2821. o
1 2 1 39916. 32463. 611. o
1 2 -1 40098. 31610. 593. o
2 2 1 8961. 7358. 543. o
2 2 -1 9013. 13958. 539. o
1 3 1 149732. 146525. 849. o
1 3 -1 150101. 145294. 858. o
2 3 1 8218. 6147. 317. o
2 3 -1 8182. 6295. 337. o
3 3 1 68651. 73294. 526. o
3 3 -1 68256. 70715. 542. o
1 4 1 21711. 23031. 301. o
1 4 -1 21604. 24084. 300. o
2 4 1 6181. 2147. 317. o
2 4 -1 6203. 2042. 317. o
3 4 1 3889. 5579. 276. o
3 4 -1 3909. 5474. 288. o
4 4 1 7809. 4400. 423. o
4 4 -1 7804. 4389. 433. o
1 5 1 34336. 30147. 437. o
1 5 -1 34909. 30979. 434. o
2 5 1 979. 916. 274. o
2 5 -1 963. 1105. 252. o
3 5 1 39118. 41747. 266. o
3 5 -1 39055. 41789. 276. o
4 5 1 1319. 958. 243. o
4 5 -1 1333. 1305. 263. o
5 5 1 10086. 9316. 405. o
5 5 -1 10097. 9453. 415. o
1 6 1 4214. 5074. 248. o
1 6 -1 4199. 5126. 291. o
2 6 1 1285. 1274. 263. o
2 6 -1 1309. 1095. 284. o
3 6 1 909. 1547. 241. o
3 6 -1 915. 1789. 262. o
4 6 1 1443. 842. 232. o
4 6 -1 1417. 1284. 263. o
5 6 1 197. 611. 242. <
5 6 -1 206. -42. 263. <
6 6 1 894. 916. 347. <
6 6 -1 911. 1232. 410. <
1 7 1 11668. 7105. 291. o
1 7 -1 12021. 7579. 283. o
2 7 1 2683. 3674. 217. o
2 7 -1 2644. 3537. 239. o
3 7 1 4885. 4379. 276. o
3 7 -1 4967. 4010. 257. o
4 7 1 3742. 4937. 268. o
4 7 -1 3807. 4526. 271. o
5 7 1 16186. 17358. 310. o
5 7 -1 16276. 16884. 296. o
6 7 1 725. 1084. 263. o
6 7 -1 724. 1011. 263. o
7 7 1 2425. 2368. 442. o
7 7 -1 2426. 2768. 431. o
1 8 1 87. -211. 253. <
1 8 -1 95. 274. 253. <
2 8 1 176. 263. 232. <
2 8 -1 177. -200. 274. <
3 8 1 93. 358. 253. <
3 8 -1 94. 211. 253. <
4 8 1 72. 589. 273. <
4 8 -1 69. 400. 305. <
5 8 1 141. 716. 284. <
5 8 -1 142. 589. 295. <
6 8 1 6. 958. 326. <
6 8 -1 6. 1200. 304. o
7 8 1 45. 684. 305. <
7 8 -1 45. 874. 305. <
1 9 1 2695. 1453. 286. o
1 9 -1 2825. 1200. 287. o
2 9 1 690. 1968. 282. o
2 9 -1 676. 1558. 273. o
3 9 1 5800. 5147. 319. o
3 9 -1 5819. 5200. 298. o
4 9 1 1000. 1663. 304. o
4 9 -1 1020. 1589. 326. o
5 9 1 660. 1747. 315. o
5 9 -1 655. 1800. 283. o
1 10 1 572. 1589. 294. o
1 10 -1 581. 1558. 283. o
2 10 1 420. 1232. 315. o
2 10 -1 432. 979. 305. o
3 10 1 37. 874. 305. <
3 10 -1 38. 737. 273. <
0 1 2 8227. 5389. 691. o
0 1 -2 8396. 5084. 661. o
1 1 2 317. 389. 589. <
1 1 -2 312. 537. 684. <
0 2 2 19411. 29537. 454. o
0 2 -2 19452. 29200. 675. o
1 2 2 7780. 6737. 384. o
1 2 -2 7868. 6810. 426. o
2 2 2 114468. 119504. 682. o
2 2 -2 114469. 116841. 797. o
0 3 2 66286. 50610. 869. o
0 3 -2 66617. 52126. 1056. o
1 3 2 2913. 695. 308. <
1 3 -2 2883. 947. 287. o
2 3 2 19113. 16568. 399. o
2 3 -2 19136. 16589. 380. o
3 3 2 10210. 4137. 424. o
3 3 -2 10108. 4021. 424. o
0 4 2 103407. 118389. 2267. o
0 4 -2 102872. 126241. 2420. o
1 4 2 116. 253. 305. <
1 4 -2 109. 358. 253. <
2 4 2 111. 1189. 315. o
2 4 -2 124. 958. 273. o
3 4 2 1561. 1158. 264. o
3 4 -2 1579. 1232. 285. o
4 4 2 53616. 59947. 323. o
4 4 -2 53747. 60926. 315. o
0 5 2 25033. 25094. 483. o
0 5 -2 24974. 25568. 476. o
1 5 2 952. 863. 242. o
1 5 -2 960. 958. 253. o
2 5 2 16202. 15768. 322. o
2 5 -2 16083. 15589. 281. o
3 5 2 7119. 2032. 282. o
3 5 -2 7110. 2642. 291. o
4 5 2 327. 716. 252. <
4 5 -2 319. 621. 221. <
5 5 2 3279. 2442. 360. o
5 5 -2 3300. 2368. 349. o
0 6 2 2441. 1242. 380. o
0 6 -2 2333. 1432. 338. o
1 6 2 282. 737. 221. o
1 6 -2 273. 442. 295. <
2 6 2 49006. 57652. 1105. o
2 6 -2 48728. 58231. 1112. o
3 6 2 3021. 2316. 275. o
3 6 -2 3037. 2600. 233. o
4 6 2 1618. 1979. 273. o
4 6 -2 1642. 2084. 241. o
5 6 2 954. 758. 253. <
5 6 -2 1012. 705. 253. <
6 6 2 7224. 6484. 393. o
6 6 -2 7165. 6516. 403. o
0 7 2 3964. 2947. 350. o
0 7 -2 3968. 3484. 359. o
1 7 2 192. 432. 221. <
1 7 -2 186. 305. 242. <
2 7 2 1611. 1768. 231. o
2 7 -2 1607. 1989. 262. o
3 7 2 182. 600. 252. <
3 7 -2 178. -189. 253. <
4 7 2 793. 84. 274. <
4 7 -2 790. 716. 253. <
5 7 2 666. 568. 274. <
5 7 -2 685. 505. 263. <
6 7 2 24. 211. 274. <
6 7 -2 21. 621. 273. <
7 7 2 53. 758. 463. <
7 7 -2 49. 832. 421. <
0 8 2 28586. 35642. 299. o
0 8 -2 28321. 35600. 341. o
1 8 2 689. 1200. 273. o
1 8 -2 672. 1053. 252. o
2 8 2 459. 653. 242. <
2 8 -2 468. 453. 284. <
3 8 2 1728. 1758. 263. o
3 8 -2 1726. 2147. 305. o
4 8 2 8739. 7905. 301. o
4 8 -2 8702. 8621. 295. o
5 8 2 1191. 1558. 315. o
5 8 -2 1215. 2042. 272. o
6 8 2 2487. 2516. 326. o
6 8 -2 2521. 2779. 284. o
7 8 2 66. 1105. 326. o
7 8 -2 73. 1032. 294. o
0 9 2 62. 400. 379. <
0 9 -2 79. 821. 400. <
1 9 2 443. 116. 295. <
1 9 -2 454. 621. 263. <
2 9 2 175. 95. 274. <
2 9 -2 191. 558. 274. <
3 9 2 250. 737. 273. <
3 9 -2 250. 389. 326. <
4 9 2 389. 1274. 305. o
4 9 -2 381. 1074. 336. o
5 9 2 522. 716. 305. <
5 9 -2 521. 779. 284. <
0 10 2 154. 526. 400. <
0 10 -2 170. 758. 442. <
1 10 2 41. 579. 295. <
1 10 -2 40. 568. 316. <
2 10 2 6380. 6463. 326. o
2 10 -2 6381. 6442. 326. o
3 10 2 281. 1326. 315. o
3 10 -2 280. 1189. 315. o
1 1 3 18737. 31579. 698. o
1 1 -3 18718. 30094. 681. o
1 2 3 2584. 1284. 381. o
1 2 -3 2714. 1379. 349. o
2 2 3 15480. 6568. 519. o
2 2 -3 15797. 6926. 550. o
1 3 3 1011. 1926. 315. o
1 3 -3 1036. 1768. 283. o
2 3 3 582. 726. 316. <
2 3 -3 560. 505. 326. <
3 3 3 33. 284. 410. <
3 3 -3 38. 484. 442. <
1 4 3 1779. 32. 296. <
1 4 -3 1628. 84. 285. <
2 4 3 13020. 7358. 367. o
2 4 -3 13159. 6916. 351. o
3 4 3 93. 74. 263. <
3 4 -3 87. -21. 253. <
4 4 3 14262. 8958. 456. o
4 4 -3 14242. 8579. 428. o
1 5 3 5555. 9400. 241. o
1 5 -3 5495. 9916. 306. o
2 5 3 2051. 526. 296. <
2 5 -3 1994. 368. 244. <
3 5 3 251. 611. 263. <
3 5 -3 254. 568. 263. <
4 5 3 2037. 126. 254. <
4 5 -3 2074. 547. 244. <
5 5 3 185. 295. 400. <
5 5 -3 197. 411. 368. <
1 6 3 800. 253. 242. <
1 6 -3 726. 263. 274. <
2 6 3 2517. 2105. 254. o
2 6 -3 2502. 2221. 274. o
3 6 3 424. 316. 263. <
3 6 -3 411. 158. 242. <
4 6 3 2319. 1674. 264. o
4 6 -3 2324. 1495. 265. o
5 6 3 209. 232. 242. <
5 6 -3 220. -63. 232. <
6 6 3 698. 1337. 378. o
6 6 -3 702. 1053. 358. <
1 7 3 4445. 10905. 198. o
1 7 -3 4384. 10958. 210. o
2 7 3 2771. 547. 224. <
2 7 -3 2785. 758. 256. <
3 7 3 693. 1768. 240. o
3 7 -3 686. 1758. 251. o
4 7 3 2697. 642. 287. <
4 7 -3 2726. 747. 235. o
5 7 3 1839. 3158. 281. o
5 7 -3 1857. 3000. 249. o
6 7 3 878. 768. 284. <
6 7 -3 910. 800. 274. <
7 7 3 1249. 3979. 437. o
7 7 -3 1289. 3895. 448. o
1 8 3 394. 505. 253. <
1 8 -3 391. 411. 242. <
2 8 3 32. 347. 242. <
2 8 -3 34. 263. 274. <
3 8 3 79. -168. 263. <
3 8 -3 73. 189. 274. <
4 8 3 26. 589. 273. <
4 8 -3 22. 495. 284. <
5 8 3 297. 600. 295. <
5 8 -3 294. 389. 274. <
6 8 3 43. 779. 315. <
6 8 -3 47. 1042. 284. o
7 8 3 83. 1126. 326. o
7 8 -3 81. 789. 284. <
1 9 3 806. 2684. 291. o
1 9 -3 811. 2516. 281. o
2 9 3 658. 189. 295. <
2 9 -3 653. 768. 295. <
3 9 3 59. 400. 263. <
3 9 -3 61. 737. 326. <
4 9 3 1067. 1189. 295. o
4 9 -3 1096. 642. 306. <
5 9 3 161. 1389. 304. o
5 9 -3 158. 1558. 304. o
1 10 3 838. 1263. 305. o
1 10 -3 851. 1000. 284. o
2 10 3 418. 1421. 304. o
2 10 -3 424. 1189. 273. o
3 10 3 261. 1147. 305. o
3 10 -3 262. 968. 315. o
0 0 4 488292. 667732. 12861. o
0 0 -4 489292. 678384. 12988. o
0 1 4 377. 95. 568. <
0 1 -4 405. 126. 684. <
1 1 4 49. 221. 558. <
1 1 -4 60. 32. 505. <
0 2 4 164996. 218062. 3883. o
0 2 -4 165383. 209956. 3830. o
1 2 4 26084. 26305. 470. o
1 2 -4 26170. 26242. 452. o
2 2 4 422122. 498701. 9106. o
2 2 -4 421729. 497270. 9092. o
0 3 4 118933. 106315. 1121. o
0 3 -4 119118. 102073. 1356. o
1 3 4 3146. 1463. 308. o
1 3 -4 3009. 1211. 298. o
2 3 4 6606. 4221. 326. o
2 3 -4 6555. 4432. 325. o
3 3 4 4609. 11. 374. <
3 3 -4 4511. 379. 415. <
0 4 4 291102. 346892. 6283. o
0 4 -4 290471. 344103. 6324. o
1 4 4 5488. 6274. 301. o
1 4 -4 5447. 6032. 292. o
2 4 4 67382. 85284. 1552. o
2 4 -4 67357. 81431. 1504. o
3 4 4 3970. 4263. 283. o
3 4 -4 3950. 4526. 282. o
4 4 4 174396. 194030. 3715. o
4 4 -4 174663. 185272. 3653. o
0 5 4 11134. 10232. 344. o
0 5 -4 11130. 10979. 527. o
1 5 4 641. 137. 242. <
1 5 -4 634. -32. 274. <
2 5 4 26403. 27568. 288. o
2 5 -4 26228. 26589. 275. o
3 5 4 3863. 1421. 258. o
3 5 -4 3848. 968. 228. o
4 5 4 2012. 2389. 252. o
4 5 -4 2030. 2295. 241. o
5 5 4 2816. 358. 371. <
5 5 -4 2806. 105. 339. <
0 6 4 50694. 56178. 344. o
0 6 -4 51541. 56052. 438. o
1 6 4 321. 421. 221. <
1 6 -4 342. 863. 294. <
2 6 4 123875. 127189. 180. o
2 6 -4 123709. 125346. 423. o
3 6 4 11388. 13147. 263. o
3 6 -4 11376. 12789. 245. o
4 6 4 20884. 23042. 272. o
4 6 -4 20963. 22389. 253. o
5 6 4 149. 484. 242. <
5 6 -4 144. 379. 242. <
6 6 4 58718. 65284. 356. o
6 6 -4 58274. 63410. 422. o
0 7 4 5006. 5063. 347. o
0 7 -4 4985. 5453. 335. o
1 7 4 296. 400. 253. <
1 7 -4 296. 579. 263. <
2 7 4 538. 621. 210. <
2 7 -4 509. 937. 263. o
3 7 4 309. 284. 274. <
3 7 -4 296. 316. 242. <
4 7 4 906. 1084. 284. o
4 7 -4 902. 1411. 241. o
5 7 4 340. 947. 273. o
5 7 -4 345. 716. 242. <
6 7 4 1485. 1189. 316. o
6 7 -4 1462. 1484. 274. o
7 7 4 416. 811. 410. <
7 7 -4 396. 1063. 421. <
0 8 4 60967. 54178. 678. o
0 8 -4 60690. 55536. 651. o
1 8 4 3284. 3684. 262. o
1 8 -4 3272. 3400. 263. o
2 8 4 15884. 15789. 296. o
2 8 -4 16079. 16326. 302. o
3 8 4 740. 1632. 241. o
3 8 -4 717. 1547. 283. o
4 8 4 43419. 43536. 375. o
4 8 -4 43260. 42842. 381. o
5 8 4 4472. 6232. 307. o
5 8 -4 4480. 5400. 301. o
6 8 4 4753. 2789. 311. o
6 8 -4 4771. 2832. 301. o
7 8 4 7. 1232. 336. o
7 8 -4 7. 989. 294. o
0 9 4 3215. 4421. 418. o
0 9 -4 3216. 4400. 376. o
1 9 4 85. 600. 273. <
1 9 -4 84. -158. 305. <
2 9 4 19. 726. 284. <
2 9 -4 20. 684. 273. <
3 9 4 785. 768. 263. <
3 9 -4 805. 589. 337. <
4 9 4 661. 1095. 263. o
4 9 -4 652. 1221. 305. o
5 9 4 55. 1284. 315. o
5 9 -4 56. 1105. 347. o
0 10 4 5924. 4526. 415. o
0 10 -4 6038. 4474. 416. o
1 10 4 83. 958. 305. o
1 10 -4 84. 811. 284. <
2 10 4 21449. 18642. 406. o
2 10 -4 21398. 17884. 423. o
3 10 4 1462. 2389. 314. o
3 10 -4 1452. 2695. 324. o
1 1 5 4708. 12042. 634. o
1 1 -5 4910. 11495. 833. o
1 2 5 9837. 7189. 424. o
1 2 -5 9738. 6979. 394. o
2 2 5 15946. 6916. 570. o
2 2 -5 16019. 7074. 541. o
1 3 5 13102. 14937. 315. o
1 3 -5 13304. 14705. 354. o
2 3 5 610. 716. 284. <
2 3 -5 538. 568. 284. <
3 3 5 12274. 12137. 485. o
3 3 -5 12389. 11600. 406. o
1 4 5 13524. 11421. 337. o
1 4 -5 13596. 11389. 347. o
2 4 5 11392. 6000. 349. o
2 4 -5 11428. 5821. 322. o
3 4 5 1651. 1768. 273. o
3 4 -5 1698. 2137. 262. o
4 4 5 10117. 5547. 381. o
4 4 -5 10084. 5295. 402. o
1 5 5 36396. 44347. 855. o
1 5 -5 36683. 43989. 869. o
2 5 5 1741. 253. 285. <
2 5 -5 1718. 579. 243. <
3 5 5 35479. 42042. 839. o
3 5 -5 35661. 41558. 824. o
4 5 5 1998. 1400. 254. o
4 5 -5 1928. 1411. 243. o
5 5 5 5647. 4621. 362. o
5 5 -5 5533. 5168. 391. o
1 6 5 2605. 2305. 222. o
1 6 -5 2589. 2463. 285. o
2 6 5 1700. 3126. 259. o
2 6 -5 1707. 1800. 274. o
3 6 5 246. -11. 242. <
3 6 -5 279. 305. 242. <
4 6 5 2495. 1863. 264. o
4 6 -5 2472. 2274. 253. o
5 6 5 74. 463. 274. <
5 6 -5 70. 663. 263. <
6 6 5 284. 368. 432. <
6 6 -5 287. 600. 400. <
1 7 5 38133. 49379. 903. o
1 7 -5 38455. 49652. 925. o
2 7 5 3125. 2284. 244. o
2 7 -5 3168. 2211. 276. o
3 7 5 10166. 13284. 282. o
3 7 -5 10260. 12684. 279. o
4 7 5 2477. 1926. 285. o
4 7 -5 2459. 2021. 243. o
5 7 5 12521. 11337. 327. o
5 7 -5 12467. 10695. 293. o
6 7 5 1000. 1253. 316. o
6 7 -5 958. 1284. 273. o
7 7 5 579. 1547. 410. o
7 7 -5 491. 832. 442. <
1 8 5 219. 653. 252. <
1 8 -5 209. 389. 274. <
2 8 5 60. 200. 253. <
2 8 -5 57. 316. 295. <
3 8 5 9. 263. 253. <
3 8 -5 15. 326. 305. <
4 8 5 118. 758. 273. <
4 8 -5 116. 1011. 305. o
5 8 5 188. 505. 295. <
5 8 -5 202. 1074. 262. o
6 8 5 23. 663. 316. <
6 8 -5 24. 958. 294. o
7 8 5 63. 705. 347. <
7 8 -5 68. 1084. 305. o
1 9 5 9913. 13210. 280. o
1 9 -5 10052. 13652. 287. o
2 9 5 667. 747. 284. <
2 9 -5 664. 884. 316. <
3 9 5 10686. 12821. 270. o
3 9 -5 10786. 13252. 323. o
4 9 5 1241. 1653. 273. o
4 9 -5 1242. 1937. 325. o
5 9 5 337. 916. 315. <
5 9 -5 321. 1242. 336. o
1 10 5 714. 1853. 293. o
1 10 -5 689. 1442. 304. o
2 10 5 510. 968. 305. o
2 10 -5 513. 1305. 305. o
3 10 5 214. 1232. 315. o
3 10 -5 213. 1242. 357. o
0 0 6 54207. 80768. 2084. o
0 0 -6 54230. 79884. 2118. o
0 1 6 26756. 31800. 702. o
0 1 -6 26472. 32084. 831. o
1 1 6 5068. 3926. 592. o
1 1 -6 5086. 3674. 655. o
0 2 6 446018. 560238. 9980. o
0 2 -6 446327. 535817. 9746. o
1 2 6 18496. 20274. 420. o
1 2 -6 18469. 19789. 459. o
2 2 6 167289. 210293. 3813. o
2 2 -6 166544. 207746. 3784. o
0 3 6 3289. 3600. 452. o
0 3 -6 3386. 3337. 484. o
1 3 6 2672. 705. 328. <
1 3 -6 2625. 421. 318. <
2 3 6 24592. 24516. 401. o
2 3 -6 24386. 23631. 371. o
3 3 6 31270. 20600. 644. o
3 3 -6 31273. 19284. 611. o
0 4 6 229912. 272282. 4966. o
0 4 -6 230030. 269987. 5020. o
1 4 6 8135. 9432. 306. o
1 4 -6 8209. 9516. 316. o
2 4 6 67342. 83862. 1539. o
2 4 -6 67461. 82452. 1515. o
3 4 6 10487. 10263. 297. o
3 4 -6 10573. 9874. 291. o
4 4 6 157232. 176346. 3376. o
4 4 -6 156416. 165946. 3288. o
0 5 6 28053. 22979. 485. o
0 5 -6 28088. 24326. 592. o
1 5 6 5555. 4979. 277. o
1 5 -6 5584. 4768. 319. o
2 5 6 2529. 2568. 263. o
2 5 -6 2659. 2358. 274. o
3 5 6 7335. 3558. 291. o
3 5 -6 7318. 3368. 281. o
4 5 6 3871. 3337. 265. o
4 5 -6 3869. 3021. 266. o
5 5 6 8793. 7189. 367. o
5 5 -6 8804. 7242. 418. o
0 6 6 10785. 5663. 405. o
0 6 -6 10479. 5600. 453. o
1 6 6 8337. 6874. 244. o
1 6 -6 8385. 7095. 303. o
2 6 6 163587. 192841. 3513. o
2 6 -6 163725. 190188. 3501. o
3 6 6 3042. 1368. 256. o
3 6 -6 3058. 1084. 246. o
4 6 6 15206. 17495. 282. o
4 6 -6 15193. 16852. 246. o
5 6 6 5900. 4674. 280. o
5 6 -6 5902. 4653. 269. o
6 6 6 41100. 38547. 565. o
6 6 -6 41481. 35810. 590. o
0 7 6 2449. 2463. 337. o
0 7 -6 2482. 2368. 337. o
1 7 6 29. 474. 221. <
1 7 -6 31. 326. 263. <
2 7 6 3786. 2905. 256. o
2 7 -6 3727. 2705. 277. o
3 7 6 1635. 2558. 272. o
3 7 -6 1643. 2326. 251. o
4 7 6 2557. 2274. 274. o
4 7 -6 2573. 2316. 243. o
5 7 6 81. 453. 284. <
5 7 -6 79. 516. 252. <
6 7 6 873. 968. 316. o
6 7 -6 877. 1168. 273. o
7 7 6 456. 1516. 420. o
7 7 -6 450. 1053. 410. <
0 8 6 98580. 116862. 2196. o
0 8 -6 98705. 122346. 2242. o
1 8 6 1345. 1274. 263. o
1 8 -6 1379. 737. 295. <
2 8 6 3286. 800. 257. o
2 8 -6 3202. 684. 298. <
3 8 6 6195. 4263. 262. o
3 8 -6 6184. 4137. 304. o
4 8 6 42718. 44768. 334. o
4 8 -6 42659. 44831. 355. o
5 8 6 721. 221. 295. <
5 8 -6 717. 916. 274. o
6 8 6 7134. 8400. 350. o
6 8 -6 7075. 7221. 315. o
7 8 6 1049. 1537. 357. o
7 8 -6 1047. 853. 305. <
0 9 6 410. 358. 358. <
0 9 -6 413. 589. 379. <
1 9 6 7. 1126. 283. o
1 9 -6 8. 737. 294. <
2 9 6 2333. 2242. 284. o
2 9 -6 2365. 2158. 337. o
3 9 6 868. 1663. 283. o
3 9 -6 878. 1600. 304. o
4 9 6 954. 1116. 274. o
4 9 -6 944. 1242. 337. o
5 9 6 10. 1011. 262. o
5 9 -6 11. 1137. 326. o
0 10 6 1474. 347. 358. <
0 10 -6 1439. 884. 411. <
1 10 6 1147. 1389. 294. o
1 10 -6 1147. 1221. 305. o
2 10 6 26521. 26652. 366. o
2 10 -6 26458. 26558. 398. o
3 10 6 293. 1484. 304. o
3 10 -6 299. 853. 326. <
1 1 7 1381. 495. 527. <
1 1 -7 1350. 368. 748. <
1 2 7 28121. 25642. 432. o
1 2 -7 28077. 26105. 503. o
2 2 7 1308. 453. 464. <
2 2 -7 1440. 53. 474. <
1 3 7 1657. 2642. 282. o
1 3 -7 1598. 2684. 356. o
2 3 7 3063. 2653. 338. o
2 3 -7 3055. 2884. 306. o
3 3 7 2160. 2095. 421. o
3 3 -7 2242. 2074. 463. o
1 4 7 21311. 25147. 268. o
1 4 -7 21486. 24968. 290. o
2 4 7 2272. 389. 317. <
2 4 -7 2323. 305. 286. <
3 4 7 1781. 2253. 283. o
3 4 -7 1829. 2147. 252. o
4 4 7 3306. 1516. 382. o
4 4 -7 3309. 1895. 402. o
1 5 7 2222. 1600. 243. o
1 5 -7 2108. 1421. 264. o
2 5 7 1579. 1968. 252. o
2 5 -7 1649. 2074. 273. o
3 5 7 3143. 4000. 271. o
3 5 -7 3109. 3642. 261. o
4 5 7 2372. 2411. 274. o
4 5 -7 2350. 2537. 252. o
5 5 7 1842. 811. 359. <
5 5 -7 1887. 947. 348. <
1 6 7 2269. 2926. 230. o
1 6 -7 2281. 2989. 282. o
2 6 7 329. 84. 242. <
2 6 -7 349. 95. 263. <
3 6 7 66. 484. 284. <
3 6 -7 68. 179. 242. <
4 6 7 1032. 442. 253. <
4 6 -7 1033. 537. 253. <
5 6 7 921. 1200. 252. o
5 6 -7 902. 1063. 242. o
6 6 7 251. 842. 452. <
6 6 -7 251. 0. 389. <
1 7 7 3854. 2179. 227. o
1 7 -7 3824. 1716. 289. o
2 7 7 3104. 4063. 249. o
2 7 -7 3200. 3884. 282. o
3 7 7 663. 568. 232. <
3 7 -7 632. 537. 263. <
4 7 7 4601. 6537. 284. o
4 7 -7 4601. 6063. 233. o
5 7 7 2469. 2800. 283. o
5 7 -7 2470. 2821. 262. o
6 7 7 1314. 1421. 295. o
6 7 -7 1312. 1653. 273. o
7 7 7 1572. 1011. 432. <
7 7 -7 1575. 989. 390. <
1 8 7 493. 832. 273. o
1 8 -7 487. 779. 273. <
2 8 7 121. -42. 242. <
2 8 -7 114. 400. 305. <
3 8 7 260. 232. 232. <
3 8 -7 259. -32. 305. <
4 8 7 154. 326. 284. <
4 8 -7 143. 495. 316. <
5 8 7 60. 316. 316. <
5 8 -7 57. 758. 294. <
6 8 7 50. 853. 315. <
6 8 -7 55. 1063. 294. o
1 9 7 1503. 1621. 295. o
1 9 -7 1446. 1158. 306. o
2 9 7 899. 1579. 283. o
2 9 -7 915. 1768. 315. o
3 9 7 1410. 1821. 252. o
3 9 -7 1374. 1653. 315. o
4 9 7 1345. 2242. 283. o
4 9 -7 1345. 2368. 356. o
5 9 7 310. 1179. 283. o
5 9 -7 317. 989. 358. <
1 10 7 1419. 3316. 301. o
1 10 -7 1424. 3295. 312. o
2 10 7 510. 768. 295. <
2 10 -7 495. 884. 305. <
3 10 7 329. 1011. 315. o
3 10 -7 333. 1379. 336. o
0 0 8 1377. 2905. 1210. <
0 0 -8 1311. 2400. 894. <
0 1 8 1151. 400. 590. <
0 1 -8 1072. 526. 621. <
1 1 8 5752. 3200. 511. o
1 1 -8 5485. 3905. 593. o
0 2 8 37006. 46558. 595. o
0 2 -8 37094. 44463. 615. o
1 2 8 11212. 9410. 381. o
1 2 -8 11311. 9610. 422. o
2 2 8 27597. 24558. 604. o
2 2 -8 27610. 23863. 640. o
0 3 8 16800. 14410. 504. o
0 3 -8 16700. 14695. 572. o
1 3 8 1513. 1042. 306. o
1 3 -8 1503. 1095. 390. <
2 3 8 966. -63. 327. <
2 3 -8 959. 211. 306. <
3 3 8 25932. 12484. 597. o
3 3 -8 25526. 11874. 561. o
0 4 8 44561. 51231. 401. o
0 4 -8 44645. 50389. 540. o
1 4 8 1043. 1884. 272. o
1 4 -8 1044. 1979. 325. o
2 4 8 1061. 1179. 274. o
2 4 -8 1076. 1316. 305. o
3 4 8 2421. 1821. 264. o
3 4 -8 2507. 1884. 244. o
4 4 8 23487. 23916. 436. o
4 4 -8 23074. 23147. 441. o
0 5 8 2276. 411. 296. <
0 5 -8 2408. 347. 485. <
1 5 8 4995. 2684. 251. o
1 5 -8 4947. 2653. 302. o
2 5 8 2629. 3916. 248. o
2 5 -8 2637. 3747. 238. o
3 5 8 4763. 3200. 279. o
3 5 -8 4835. 2716. 260. o
4 5 8 1672. 1463. 263. o
4 5 -8 1682. 1832. 263. o
5 5 8 7923. 5768. 420. o
5 5 -8 7907. 4874. 402. o
0 6 8 1374. 4937. 304. o
0 6 -8 1361. 4179. 437. o
1 6 8 1024. 653. 232. <
1 6 -8 1056. 389. 285. <
2 6 8 29016. 37684. 722. o
2 6 -8 29135. 38568. 743. o
3 6 8 5709. 5063. 298. o
3 6 -8 5656. 4968. 256. o
4 6 8 1440. 1379. 263. o
4 6 -8 1472. 1800. 241. o
5 6 8 1562. 0. 274. <
5 6 -8 1542. 421. 264. <
6 6 8 2575. 1337. 380. o
6 6 -8 2619. 1200. 402. <
0 7 8 379. 958. 336. <
0 7 -8 386. 632. 337. <
1 7 8 130. 474. 210. <
1 7 -8 127. 211. 274. <
2 7 8 931. 600. 242. <
2 7 -8 930. 1326. 252. o
3 7 8 1346. 316. 264. <
3 7 -8 1321. 979. 264. o
4 7 8 109. 663. 263. <
4 7 -8 113. 463. 263. <
5 7 8 48. 84. 284. <
5 7 -8 43. 263. 274. <
6 7 8 887. 1200. 284. o
6 7 -8 896. 1800. 294. o
7 7 8 586. 1158. 452. <
7 7 -8 589. 1084. 389. <
0 8 8 18229. 29137. 311. o
0 8 -8 18284. 29526. 224. o
1 8 8 1160. 1863. 262. o
1 8 -8 1145. 2189. 304. o
2 8 8 490. 1042. 252. o
2 8 -8 481. 737. 305. <
3 8 8 1734. 211. 254. <
3 8 -8 1740. 368. 327. <
4 8 8 3927. 3200. 297. o
4 8 -8 3872. 3695. 285. o
5 8 8 2653. 2200. 317. o
5 8 -8 2647. 2400. 337. o
6 8 8 2395. 3242. 324. o
6 8 -8 2365. 3926. 311. o
0 9 8 1986. 2368. 368. o
0 9 -8 1993. 2368. 410. o
1 9 8 13. 368. 284. <
1 9 -8 14. 358. 295. <
2 9 8 212. 495. 274. <
2 9 -8 230. 1042. 336. o
3 9 8 1010. 1011. 253. o
3 9 -8 1014. 1105. 337. o
4 9 8 429. 1095. 284. o
4 9 -8 417. 989. 315. o
5 9 8 35. 1137. 283. o
5 9 -8 37. 947. 336. <
0 10 8 258. 1084. 410. <
0 10 -8 264. 789. 452. <
1 10 8 68. 768. 305. <
1 10 -8 70. 863. 315. <
2 10 8 3327. 4063. 282. o
2 10 -8 3288. 4242. 323. o
3 10 8 651. 1084. 294. o
3 10 -8 647. 1358. 336. o
1 1 9 15750. 10179. 589. o
1 1 -9 15815. 9979. 650. o
1 2 9 18462. 14400. 384. o
1 2 -9 18334. 15189. 512. o
2 2 9 5332. 1800. 552. o
2 2 -9 5651. 1379. 584. <
1 3 9 55067. 58431. 363. o
1 3 -9 54674. 57021. 491. o
2 3 9 5135. 4526. 297. o
2 3 -9 5120. 4474. 318. o
3 3 9 44084. 39326. 644. o
3 3 -9 44090. 38084. 628. o
1 4 9 17243. 17074. 308. o
1 4 -9 17391. 17116. 351. o
2 4 9 8203. 4253. 314. o
2 4 -9 8226. 4084. 315. o
3 4 9 3144. 3989. 281. o
3 4 -9 3182. 4105. 270. o
4 4 9 8349. 4663. 475. o
4 4 -9 8381. 4621. 394. o
1 5 9 46324. 55968. 1065. o
1 5 -9 45863. 55284. 1059. o
2 5 9 981. 516. 253. <
2 5 -9 958. 505. 242. <
3 5 9 35560. 34863. 366. o
3 5 -9 35640. 34852. 378. o
4 5 9 1044. 411. 295. <
4 5 -9 1035. 358. 264. <
5 5 9 5488. 4242. 456. o
5 5 -9 5472. 4484. 351. o
1 6 9 4444. 4905. 229. o
1 6 -9 4488. 4979. 282. o
2 6 9 897. 400. 253. <
2 6 -9 891. 863. 295. <
3 6 9 2385. 2253. 242. o
3 6 -9 2427. 2474. 274. o
4 6 9 2538. 2389. 264. o
4 6 -9 2556. 2095. 264. o
5 6 9 179. -42. 274. <
5 6 -9 167. 368. 253. <
6 6 9 286. -137. 379. <
6 6 -9 293. 905. 358. <
1 7 9 27265. 36968. 682. o
1 7 -9 27178. 36789. 711. o
2 7 9 1240. 1189. 263. o
2 7 -9 1263. 768. 274. <
3 7 9 8354. 11084. 257. o
3 7 -9 8314. 10484. 286. o
4 7 9 3033. 1674. 266. o
4 7 -9 3027. 1684. 297. o
5 7 9 5588. 3758. 281. o
5 7 -9 5599. 3863. 271. o
6 7 9 261. 705. 326. <
6 7 -9 264. 684. 263. <
7 7 9 349. 768. 421. <
7 7 -9 378. 537. 400. <
1 8 9 631. 368. 232. <
1 8 -9 617. 726. 295. <
2 8 9 85. 368. 242. <
2 8 -9 74. -63. 295. <
3 8 9 192. 853. 252. o
3 8 -9 191. 358. 316. <
4 8 9 230. 800. 273. <
4 8 -9 231. 621. 316. <
5 8 9 812. 811. 284. <
5 8 -9 799. 1063. 326. o
6 8 9 37. 1105. 315. o
6 8 -9 38. 1779. 335. o
1 9 9 7100. 10263. 267. o
1 9 -9 7044. 10242. 278. o
2 9 9 571. 1158. 263. o
2 9 -9 589. 1074. 305. o
3 9 9 6106. 6453. 282. o
3 9 -9 6137. 6695. 345. o
4 9 9 508. 642. 253. <
4 9 -9 497. 1105. 336. o
5 9 9 166. 1463. 304. o
5 9 -9 171. 874. 336. <
1 10 9 459. 695. 316. <
1 10 -9 447. 979. 294. o
2 10 9 596. 1179. 294. o
2 10 -9 585. 1179. 315. o
3 10 9 207. 1200. 273. o
3 10 -9 204. 768. 316. <
0 1 10 147169. 160357. 518. o
0 1 -10 147463. 147188. 1125. o
1 1 10 13326. 12274. 616. o
1 1 -10 13228. 11337. 620. o
0 2 10 4353. 1968. 477. o
0 2 -10 3794. 1895. 497. o
1 2 10 12619. 21274. 274. o
1 2 -10 12538. 21852. 504. o
2 2 10 654954. 787299. 14094. o
2 2 -10 655589. 766215. 14043. o
0 3 10 3314. 916. 476. <
0 3 -10 3264. 695. 424. <
1 3 10 10454. 8768. 339. o
1 3 -10 10439. 8347. 423. o
2 3 10 124722. 134631. 2630. o
2 3 -10 124564. 125599. 733. o
3 3 10 6908. 4179. 461. o
3 3 -10 6776. 3674. 399. o
0 4 10 434114. 495428. 9205. o
0 4 -10 434105. 487038. 9154. o
1 4 10 34806. 35705. 345. o
1 4 -10 34862. 35789. 422. o
2 4 10 8443. 9526. 275. o
2 4 -10 8150. 9853. 302. o
3 4 10 12443. 16105. 278. o
3 4 -10 12372. 14989. 295. o
4 4 10 224935. 251851. 4777. o
4 4 -10 225747. 239682. 4702. o
0 5 10 87839. 96715. 1909. o
0 5 -10 87884. 97178. 528. o
1 5 10 3930. 3916. 253. o
1 5 -10 3933. 3895. 305. o
2 5 10 860. 821. 263. o
2 5 -10 865. 558. 263. <
3 5 10 9336. 6779. 292. o
3 5 -10 9302. 7000. 320. o
4 5 10 17653. 19631. 317. o
4 5 -10 17582. 18495. 312. o
5 5 10 2016. 1189. 401. <
5 5 -10 2021. 1211. 359. o
0 6 10 11740. 9105. 347. o
0 6 -10 11326. 8579. 509. o
1 6 10 19196. 21368. 251. o
1 6 -10 19108. 22158. 306. o
2 6 10 165778. 169146. 3383. o
2 6 -10 165846. 169009. 253. o
3 6 10 3472. 1979. 257. o
3 6 -10 3520. 1537. 288. o
4 6 10 4884. 4621. 285. o
4 6 -10 4832. 4442. 286. o
5 6 10 12848. 13884. 293. o
5 6 -10 12982. 13484. 310. o
6 6 10 66282. 63652. 671. o
6 6 -10 66431. 66115. 599. o
0 7 10 2235. 2084. 358. o
0 7 -10 2215. 2053. 432. o
1 7 10 2526. 2726. 242. o
1 7 -10 2518. 2505. 305. o
2 7 10 17543. 17547. 295. o
2 7 -10 17538. 17726. 345. o
3 7 10 1360. 1547. 263. o
3 7 -10 1349. 1895. 262. o
4 7 10 3337. 2474. 286. o
4 7 -10 3310. 2495. 307. o
5 7 10 2135. 1968. 306. o
5 7 -10 2121. 2642. 304. o
6 7 10 3497. 2453. 350. o
6 7 -10 3507. 2726. 307. o
7 7 10 504. 1558. 473. o
7 7 -10 501. 1568. 410. o
0 8 10 72964. 67810. 734. o
0 8 -10 72687. 69157. 711. o
1 8 10 3158. 1979. 256. o
1 8 -10 3191. 1705. 287. o
2 8 10 6182. 4968. 280. o
2 8 -10 6003. 4653. 301. o
3 8 10 12165. 15389. 262. o
3 8 -10 12142. 15579. 342. o
4 8 10 47795. 48589. 362. o
4 8 -10 47912. 48621. 410. o
5 8 10 705. 1011. 316. o
5 8 -10 699. 968. 316. o
6 8 10 2153. 947. 317. <
6 8 -10 2235. 1747. 317. o
0 9 10 3172. 1863. 381. o
0 9 -10 3192. 1632. 455. o
1 9 10 1264. 1284. 274. o
1 9 -10 1277. 1453. 326. o
2 9 10 2951. 3568. 282. o
2 9 -10 2953. 3358. 336. o
3 9 10 958. 1116. 284. o
3 9 -10 956. 947. 337. <
4 9 10 4043. 2842. 288. o
4 9 -10 4065. 2895. 350. o
5 9 10 751. 1653. 315. o
5 9 -10 764. 1189. 347. o
0 10 10 2792. 2526. 474. o
0 10 -10 2722. 2505. 442. o
1 10 10 2588. 2768. 305. o
1 10 -10 2563. 3263. 346. o
2 10 10 22592. 19116. 407. o
2 10 -10 22652. 17831. 431. o
3 10 10 775. 1368. 284. o
3 10 -10 782. 926. 358. <
1 1 11 482600. 548270. 10290. o
1 1 -11 482857. 511407. 10036. o
1 2 11 1285. 347. 348. <
1 2 -11 1388. 379. 337. <
2 2 11 10547. 5895. 473. o
2 2 -11 10641. 6200. 874. o
1 3 11 174879. 196009. 3698. o
1 3 -11 174259. 189083. 3670. o
2 3 11 167. -32. 305. <
2 3 -11 145. 316. 284. <
3 3 11 70884. 78968. 392. o
3 3 -11 70752. 75905. 711. o
1 4 11 5165. 3316. 250. o
1 4 -11 5040. 2821. 312. o
2 4 11 11760. 6979. 330. o
2 4 -11 11894. 6821. 341. o
3 4 11 141. 74. 242. <
3 4 -11 129. 105. 263. <
4 4 11 17247. 11484. 554. o
4 4 -11 17168. 10232. 436. o
1 5 11 27915. 19631. 431. o
1 5 -11 27809. 20631. 465. o
2 5 11 1632. 411. 264. <
2 5 -11 1598. 274. 275. <
3 5 11 31300. 33073. 288. o
3 5 -11 31103. 32810. 338. o
4 5 11 1532. 716. 285. <
4 5 -11 1490. 137. 253. <
5 5 11 12669. 14768. 468. o
5 5 -11 12694. 13695. 402. o
1 6 11 867. 916. 232. o
1 6 -11 865. 853. 295. <
2 6 11 2956. 2316. 265. o
2 6 -11 2975. 2168. 286. o
3 6 11 291. 758. 252. <
3 6 -11 285. 568. 274. <
4 6 11 3198. 3200. 263. o
4 6 -11 3224. 2905. 296. o
5 6 11 333. 611. 305. <
5 6 -11 333. 295. 263. <
6 6 11 1847. 1200. 453. <
6 6 -11 1863. 1547. 390. o
1 7 11 5407. 1347. 264. o
1 7 -11 5380. 1674. 315. o
2 7 11 1600. 189. 254. <
2 7 -11 1597. 453. 285. <
3 7 11 4585. 2853. 249. o
3 7 -11 4540. 2684. 290. o
4 7 11 2646. 968. 266. o
4 7 -11 2678. 558. 287. <
5 7 11 15390. 19863. 277. o
5 7 -11 15464. 20074. 300. o
6 7 11 582. 632. 337. <
6 7 -11 588. 674. 284. <
7 7 11 3814. 5810. 489. o
7 7 -11 3879. 5158. 407. o
1 8 11 160. 211. 242. <
1 8 -11 144. 379. 305. <
2 8 11 17. 642. 231. <
2 8 -11 18. 453. 305. <
3 8 11 92. 684. 273. <
3 8 -11 89. 600. 305. <
4 8 11 130. 547. 295. <
4 8 -11 132. 558. 305. <
5 8 11 110. 653. 284. <
5 8 -11 110. 726. 305. <
6 8 11 4. 1263. 315. o
6 8 -11 5. 916. 294. o
1 9 11 960. 800. 274. <
1 9 -11 936. 800. 337. <
2 9 11 569. 926. 284. o
2 9 -11 566. 642. 305. <
3 9 11 3814. 3463. 285. o
3 9 -11 3758. 3379. 359. o
4 9 11 818. 789. 284. <
4 9 -11 835. 905. 347. <
5 9 11 1375. 1905. 283. o
5 9 -11 1384. 2253. 367. o
1 10 11 737. 1463. 294. o
1 10 -11 730. 842. 295. <
2 10 11 216. 1158. 305. o
2 10 -11 219. 842. 358. <
0 0 12 392356. 498101. 9267. o
0 0 -12 392291. 484165. 9176. o
0 1 12 465. 1568. 441. o
0 1 -12 439. 1484. 484. o
1 1 12 259. 21. 484. <
1 1 -12 277. 347. 463. <
0 2 12 80534. 73652. 941. o
0 2 -12 80190. 68273. 1017. o
1 2 12 17650. 17431. 392. o
1 2 -12 17709. 16800. 462. o
2 2 12 215120. 235756. 4547. o
2 2 -12 216241. 239282. 4674. o
0 3 12 46402. 44631. 635. o
0 3 -12 46333. 43726. 669. o
1 3 12 6887. 4779. 315. o
1 3 -12 6880. 4926. 407. o
2 3 12 967. 421. 285. <
2 3 -12 932. 747. 337. <
3 3 12 9406. 2853. 382. o
3 3 -12 9250. 2316. 491. o
0 4 12 95904. 103304. 381. o
0 4 -12 96368. 99599. 624. o
1 4 12 3493. 3937. 251. o
1 4 -12 3427. 4032. 324. o
2 4 12 8375. 5947. 309. o
2 4 -12 8121. 6084. 337. o
3 4 12 4602. 3884. 287. o
3 4 -12 4608. 3253. 289. o
4 4 12 42460. 45758. 495. o
4 4 -12 42361. 43968. 535. o
0 5 12 1868. 1611. 369. o
0 5 -12 1809. 2200. 463. o
1 5 12 505. 326. 232. <
1 5 -12 496. 211. 295. <
2 5 12 12793. 13600. 296. o
2 5 -12 12671. 12274. 320. o
3 5 12 8519. 5947. 280. o
3 5 -12 8578. 6253. 319. o
4 5 12 1375. 1032. 306. o
4 5 -12 1412. 800. 295. <
5 5 12 2016. 1389. 432. o
5 5 -12 2000. 1200. 348. o
0 6 12 421. 2021. 303. o
0 6 -12 418. 1716. 452. o
1 6 12 1239. 453. 264. <
1 6 -12 1263. 737. 274. <
2 6 12 18982. 15474. 353. o
2 6 -12 19169. 15189. 385. o
3 6 12 7446. 7295. 285. o
3 6 -12 7402. 6853. 309. o
4 6 12 937. 95. 263. <
4 6 -12 889. 253. 274. <
5 6 12 372. 337. 284. <
5 6 -12 376. 253. 274. <
6 6 12 12078. 15547. 500. o
6 6 -12 12138. 14516. 433. o
0 7 12 3740. 3010. 307. o
0 7 -12 3747. 2484. 476. o
1 7 12 575. 642. 242. <
1 7 -12 566. 663. 305. <
2 7 12 202. -32. 253. <
2 7 -12 196. 295. 284. <
3 7 12 142. 463. 263. <
3 7 -12 136. 221. 284. <
4 7 12 1263. 1074. 295. o
4 7 -12 1276. 926. 295. o
5 7 12 896. 1379. 294. o
5 7 -12 900. 1000. 295. o
6 7 12 562. 1347. 305. o
6 7 -12 566. 589. 316. <
7 7 12 51. 674. 452. <
7 7 -12 47. 853. 421. <
0 8 12 6165. 1621. 389. o
0 8 -12 6210. 1737. 430. o
1 8 12 2271. 1874. 253. o
1 8 -12 2249. 1853. 337. o
2 8 12 403. 1937. 261. o
2 8 -12 417. 1989. 335. o
3 8 12 696. 832. 284. <
3 8 -12 700. 968. 326. <
4 8 12 6559. 6274. 317. o
4 8 -12 6543. 5642. 351. o
5 8 12 2583. 2295. 295. o
5 8 -12 2584. 2484. 348. o
6 8 12 808. 1737. 336. o
6 8 -12 786. 1474. 326. o
0 9 12 1471. 1589. 358. o
0 9 -12 1484. 905. 379. <
1 9 12 229. 842. 284. <
1 9 -12 236. 463. 347. <
2 9 12 380. 589. 284. <
2 9 -12 373. 379. 368. <
3 9 12 99. 747. 284. <
3 9 -12 107. 842. 358. <
4 9 12 133. 905. 273. o
4 9 -12 127. 1095. 357. o
5 9 12 195. 1421. 315. o
5 9 -12 202. 1011. 336. o
0 10 12 151. 916. 410. <
0 10 -12 161. 1253. 452. <
1 10 12 163. 642. 295. <
1 10 -12 171. 674. 337. <
2 10 12 2527. 1421. 286. o
2 10 -12 2575. 1589. 338. o
1 1 13 248. 642. 495. <
1 1 -13 219. 316. 432. <
1 2 13 19438. 21095. 365. o
1 2 -13 19748. 20295. 435. o
2 2 13 2208. 821. 443. <
2 2 -13 2311. 1253. 632. <
1 3 13 1574. 1895. 305. o
1 3 -13 1524. 2053. 431. o
2 3 13 2194. 1811. 253. o
2 3 -13 2278. 1874. 348. o
3 3 13 1992. 1705. 400. o
3 3 -13 2103. 1263. 516. <
1 4 13 27667. 27737. 346. o
1 4 -13 27689. 27568. 413. o
2 4 13 2202. 558. 244. <
2 4 -13 2291. 737. 265. <
3 4 13 3510. 4032. 303. o
3 4 -13 3498. 3463. 305. o
4 4 13 4439. 1758. 436. o
4 4 -13 4551. 1221. 488. <
1 5 13 3979. 3905. 232. o
1 5 -13 3940. 3810. 295. o
2 5 13 696. 632. 263. <
2 5 -13 693. 905. 305. <
3 5 13 877. 1053. 252. o
3 5 -13 888. 1084. 316. o
4 5 13 349. 916. 273. o
4 5 -13 342. 1053. 305. o
5 5 13 603. 53. 379. <
5 5 -13 599. 432. 390. <
1 6 13 6394. 7484. 277. o
1 6 -13 6404. 7147. 333. o
2 6 13 725. 579. 274. <
2 6 -13 729. 516. 295. <
3 6 13 1562. 1305. 274. o
3 6 -13 1599. 1400. 316. o
4 6 13 528. 632. 284. <
4 6 -13 545. 137. 295. <
5 6 13 52. 400. 274. <
5 6 -13 50. 326. 295. <
6 6 13 624. 695. 442. <
6 6 -13 635. 853. 410. <
1 7 13 3204. 2168. 276. o
1 7 -13 3160. 2474. 328. o
2 7 13 1410. 2137. 272. o
2 7 -13 1440. 1800. 294. o
3 7 13 474. 600. 284. <
3 7 -13 479. 21. 305. <
4 7 13 1857. 2547. 272. o
4 7 -13 1870. 2642. 304. o
5 7 13 489. 779. 284. <
5 7 -13 509. 147. 316. <
6 7 13 115. 1916. 303. o
6 7 -13 120. 1105. 305. o
7 7 13 510. 747. 484. <
7 7 -13 522. 1232. 494. <
1 8 13 130. 53. 253. <
1 8 -13 138. 316. 316. <
2 8 13 113. 137. 253. <
2 8 -13 109. 347. 305. <
3 8 13 151. 316. 274. <
3 8 -13 158. 663. 337. <
4 8 13 61. 811. 263. o
4 8 -13 60. 263. 316. <
5 8 13 337. 1011. 305. o
5 8 -13 349. 747. 337. <
6 8 13 33. 726. 284. <
6 8 -13 29. 832. 347. <
1 9 13 1006. 821. 284. <
1 9 -13 1009. 1116. 347. o
2 9 13 516. 1579. 262. o
2 9 -13 525. 1621. 367. o
3 9 13 67. 947. 263. o
3 9 -13 71. 168. 379. <
4 9 13 475. 2211. 303. o
4 9 -13 479. 1811. 388. o
1 10 13 103. 811. 294. <
1 10 -13 100. 695. 305. <
2 10 13 225. 1116. 305. o
2 10 -13 223. 937. 358. <
0 0 14 276536. 334166. 6531. o
0 0 -14 277208. 314208. 1092. o
0 1 14 37217. 45347. 477. o
0 1 -14 37111. 44705. 532. o
1 1 14 10946. 11652. 522. o
1 1 -14 11232. 10547. 509. o
0 2 14 1263. 726. 390. <
0 2 -14 1221. 632. 537. <
1 2 14 23315. 27894. 362. o
1 2 -14 23332. 27242. 376. o
2 2 14 150129. 183241. 3345. o
2 2 -14 149973. 168293. 3308. o
0 3 14 20356. 21737. 457. o
0 3 -14 20448. 21831. 608. o
1 3 14 36976. 27210. 543. o
1 3 -14 36848. 26652. 615. o
2 3 14 23840. 29042. 194. o
2 3 -14 23949. 26400. 391. o
3 3 14 492. 11. 368. <
3 3 -14 484. -84. 474. <
0 4 14 67862. 66515. 659. o
0 4 -14 67759. 65452. 693. o
1 4 14 19588. 20642. 353. o
1 4 -14 19536. 20400. 377. o
2 4 14 12522. 14042. 264. o
2 4 -14 12526. 14168. 363. o
3 4 14 9765. 10852. 273. o
3 4 -14 9781. 10063. 356. o
4 4 14 44234. 42610. 502. o
4 4 -14 44255. 43168. 764. o
0 5 14 17253. 19831. 434. o
0 5 -14 17217. 17926. 520. o
1 5 14 2313. 2895. 251. o
1 5 -14 2342. 2853. 315. o
2 5 14 9931. 7463. 283. o
2 5 -14 9809. 7789. 320. o
3 5 14 27696. 21316. 424. o
3 5 -14 27609. 20052. 476. o
4 5 14 10510. 10874. 291. o
4 5 -14 10512. 10305. 380. o
5 5 14 60. 474. 421. <
5 5 -14 66. 611. 484. <
0 6 14 24262. 37989. 746. o
0 6 -14 24188. 35316. 460. o
1 6 14 7971. 9063. 297. o
1 6 -14 8022. 8621. 333. o
2 6 14 19524. 11674. 399. o
2 6 -14 19456. 12621. 418. o
3 6 14 10777. 7874. 357. o
3 6 -14 10807. 7137. 380. o
4 6 14 3788. 3610. 285. o
4 6 -14 3770. 3484. 327. o
5 6 14 3225. 3600. 272. o
5 6 -14 3172. 3421. 305. o
6 6 14 22353. 28926. 454. o
6 6 -14 22317. 26084. 591. o
0 7 14 3991. 2874. 340. o
0 7 -14 3950. 3568. 485. o
1 7 14 5590. 5053. 266. o
1 7 -14 5578. 5000. 350. o
2 7 14 8014. 7905. 285. o
2 7 -14 8056. 8021. 327. o
3 7 14 1333. 1832. 294. o
3 7 -14 1332. 1474. 316. o
4 7 14 2371. 1916. 285. o
4 7 -14 2342. 2189. 316. o
5 7 14 3833. 3853. 284. o
5 7 -14 3787. 3768. 358. o
6 7 14 3227. 3021. 327. o
6 7 -14 3255. 2863. 348. o
7 7 14 650. 1168. 442. <
7 7 -14 662. 1674. 515. o
0 8 14 6713. 1916. 391. o
0 8 -14 6746. 1989. 504. o
1 8 14 4360. 3295. 267. o
1 8 -14 4343. 3253. 350. o
2 8 14 6605. 10589. 235. o
2 8 -14 6568. 10210. 333. o
3 8 14 3307. 3253. 305. o
3 8 -14 3313. 3158. 316. o
4 8 14 12784. 12474. 340. o
4 8 -14 12799. 11368. 391. o
5 8 14 3265. 2084. 297. o
5 8 -14 3300. 2253. 349. o
6 8 14 53. 1063. 326. o
6 8 -14 58. 926. 368. <
0 9 14 4504. 4074. 401. o
0 9 -14 4569. 3589. 434. o
1 9 14 2189. 2368. 294. o
1 9 -14 2198. 2810. 357. o
2 9 14 900. 1368. 284. o
2 9 -14 918. 1326. 358. o
3 9 14 472. 895. 284. o
3 9 -14 473. 1263. 368. o
4 9 14 2743. 2716. 326. o
4 9 -14 2714. 2274. 411. o
0 10 14 1945. 2295. 410. o
0 10 -14 1927. 2179. 452. o
1 10 14 1183. 958. 305. o
1 10 -14 1188. 1505. 336. o
1 1 15 65252. 80715. 1594. o
1 1 -15 64950. 77736. 271. o
1 2 15 18399. 17568. 379. o
1 2 -15 18182. 16968. 424. o
2 2 15 2447. 937. 370. <
2 2 -15 2568. 979. 528. <
1 3 15 29117. 32294. 301. o
1 3 -15 29239. 30863. 389. o
2 3 15 1512. 1811. 284. o
2 3 -15 1540. 1474. 337. o
3 3 15 14834. 16052. 398. o
3 3 -15 14922. 15063. 557. o
1 4 15 20424. 21863. 277. o
1 4 -15 20534. 21200. 401. o
2 4 15 2396. 789. 244. o
2 4 -15 2446. 937. 297. o
3 4 15 3462. 3958. 251. o
3 4 -15 3512. 4137. 345. o
4 4 15 5492. 2516. 355. o
4 4 -15 5500. 2032. 615. o
1 5 15 9819. 8484. 285. o
1 5 -15 9850. 8210. 348. o
2 5 15 509. 484. 263. <
2 5 -15 540. 453. 295. <
3 5 15 12830. 13989. 258. o
3 5 -15 12929. 13484. 342. o
4 5 15 1897. 2200. 252. o
4 5 -15 1866. 1989. 368. o
5 5 15 6689. 7295. 355. o
5 5 -15 6562. 6916. 557. o
1 6 15 4083. 5442. 299. o
1 6 -15 4092. 4832. 334. o
2 6 15 944. 874. 295. <
2 6 -15 951. 632. 316. <
3 6 15 75. 368. 263. <
3 6 -15 77. 768. 284. <
4 6 15 650. 137. 253. <
4 6 -15 650. 211. 295. <
5 6 15 20. 316. 274. <
5 6 -15 19. 263. 358. <
6 6 15 1003. 442. 400. <
6 6 -15 987. 758. 516. <
1 7 15 6581. 3347. 277. o
1 7 -15 6700. 3095. 349. o
2 7 15 2413. 3032. 272. o
2 7 -15 2438. 3063. 314. o
3 7 15 3586. 2916. 307. o
3 7 -15 3652. 2737. 318. o
4 7 15 1491. 2389. 314. o
4 7 -15 1462. 1958. 378. o
5 7 15 9301. 10158. 319. o
5 7 -15 9178. 10274. 403. o
6 7 15 1536. 1863. 284. o
6 7 -15 1536. 1621. 410. o
7 7 15 2676. 3242. 367. o
7 7 -15 2571. 3474. 567. o
1 8 15 202. 537. 252. <
1 8 -15 192. 789. 337. <
2 8 15 120. 389. 253. <
2 8 -15 120. 221. 337. <
3 8 15 5. -158. 295. <
3 8 -15 4. 589. 347. <
4 8 15 92. 632. 284. <
4 8 -15 95. 632. 337. <
5 8 15 230. 579. 284. <
5 8 -15 225. 463. 379. <
6 8 15 132. 674. 305. <
6 8 -15 133. 568. 389. <
1 9 15 2387. 1747. 275. o
1 9 -15 2444. 1432. 349. o
2 9 15 366. 1105. 284. o
2 9 -15 372. 1126. 378. <
3 9 15 3748. 3916. 315. o
3 9 -15 3787. 3905. 421. o
4 9 15 1546. 2558. 303. o
4 9 -15 1567. 2758. 419. o
1 10 15 623. 1947. 325. o
1 10 -15 620. 1853. 357. o
0 0 16 58531. 66000. 1239. o
0 0 -16 60219. 65789. 1286. o
0 1 16 8855. 15516. 444. o
0 1 -16 8861. 14747. 441. o
1 1 16 24894. 23495. 584. o
1 1 -16 24759. 22505. 592. o
0 2 16 21901. 25063. 475. o
0 2 -16 21390. 25694. 563. o
1 2 16 55351. 60157. 254. o
1 2 -16 55346. 59252. 409. o
2 2 16 65683. 72189. 603. o
2 2 -16 66551. 71136. 1048. o
0 3 16 97647. 104473. 467. o
0 3 -16 97602. 103547. 608. o
1 3 16 6430. 8495. 280. o
1 3 -16 6528. 8474. 346. o
2 3 16 2010. 2305. 252. o
2 3 -16 2019. 2095. 337. o
3 3 16 30157. 23400. 545. o
3 3 -16 30011. 21947. 692. o
0 4 16 77385. 82368. 475. o
0 4 -16 78080. 79684. 656. o
1 4 16 15372. 17252. 241. o
1 4 -16 15432. 16495. 356. o
2 4 16 1761. 1484. 253. o
2 4 -16 1590. 1463. 316. o
3 4 16 18351. 17242. 302. o
3 4 -16 18317. 16663. 449. o
4 4 16 51619. 48884. 536. o
4 4 -16 51583. 52273. 734. o
0 5 16 2206. 295. 359. <
0 5 -16 2281. 611. 433. <
1 5 16 12964. 11463. 341. o
1 5 -16 12907. 11737. 399. o
2 5 16 30795. 33631. 267. o
2 5 -16 30748. 33273. 366. o
3 5 16 2077. 1716. 253. o
3 5 -16 2016. 1947. 326. o
4 5 16 7575. 6463. 271. o
4 5 -16 7527. 6495. 415. o
5 5 16 8914. 7579. 366. o
5 5 -16 8744. 6958. 616. o
0 6 16 931. 2095. 378. o
0 6 -16 1001. 1895. 462. o
1 6 16 6896. 4926. 284. o
1 6 -16 6932. 5179. 365. o
2 6 16 55221. 60431. 1201. o
2 6 -16 55820. 59115. 306. o
3 6 16 15695. 16600. 270. o
3 6 -16 15674. 17326. 359. o
4 6 16 902. 389. 284. <
4 6 -16 804. 295. 348. <
5 6 16 1644. 189. 275. <
5 6 -16 1689. 832. 369. <
6 6 16 15721. 13495. 481. o
6 6 -16 15806. 11632. 634. o
0 7 16 10144. 9053. 386. o
0 7 -16 10132. 9726. 581. o
1 7 16 3101. 3758. 261. o
1 7 -16 3076. 3526. 325. o
2 7 16 3890. 2337. 288. o
2 7 -16 3919. 2484. 309. o
3 7 16 4202. 4663. 293. o
3 7 -16 4148. 4632. 325. o
4 7 16 4282. 4221. 295. o
4 7 -16 4255. 3789. 328. o
5 7 16 1656. 1558. 316. o
5 7 -16 1640. 2074. 410. o
6 7 16 3216. 2874. 296. o
6 7 -16 3226. 2379. 454. o
7 7 16 1180. 2968. 461. o
7 7 -16 1164. 1432. 642. <
0 8 16 34218. 36410. 496. o
0 8 -16 34528. 37463. 675. o
1 8 16 6154. 5589. 277. o
1 8 -16 6193. 6242. 358. o
2 8 16 377. 1011. 263. o
2 8 -16 402. 1337. 347. o
3 8 16 1204. 168. 316. <
3 8 -16 1193. 600. 379. <
4 8 16 14979. 14579. 321. o
4 8 -16 15044. 14452. 385. o
5 8 16 5467. 5210. 327. o
5 8 -16 5425. 5084. 380. o
6 8 16 833. 1032. 295. o
6 8 -16 774. 800. 411. <
0 9 16 4221. 4337. 410. o
0 9 -16 4232. 4568. 462. o
1 9 16 1242. 2084. 283. o
1 9 -16 1251. 1505. 368. o
2 9 16 1460. 1137. 285. o
2 9 -16 1468. 1137. 390. <
3 9 16 2319. 2853. 325. o
3 9 -16 2345. 2516. 421. o
4 9 16 1649. 1632. 337. o
4 9 -16 1664. 1663. 379. o
0 10 16 108. 779. 431. <
0 10 -16 117. 337. 495. <
1 1 17 51396. 64926. 216. o
1 1 -17 51474. 60294. 395. o
1 2 17 314. 421. 274. <
1 2 -17 304. 568. 305. <
2 2 17 6054. 3758. 407. o
2 2 -17 6087. 3463. 615. o
1 3 17 1466. 2389. 272. o
1 3 -17 1518. 2147. 315. o
2 3 17 31. 84. 263. <
2 3 -17 38. -42. 326. <
3 3 17 667. 368. 369. <
3 3 -17 670. 947. 547. <
1 4 17 1214. 611. 264. <
1 4 -17 1282. 1084. 348. o
2 4 17 8419. 4968. 274. o
2 4 -17 8401. 4895. 363. o
3 4 17 112. 421. 231. <
3 4 -17 112. 421. 368. <
4 4 17 10486. 8295. 362. o
4 4 -17 10525. 9200. 585. o
1 5 17 6440. 9926. 230. o
1 5 -17 6453. 9116. 308. o
2 5 17 754. 547. 253. <
2 5 -17 745. 421. 326. <
3 5 17 5144. 5210. 252. o
3 5 -17 5158. 5789. 387. o
4 5 17 687. 147. 242. <
4 5 -17 682. -21. 379. <
5 5 17 922. 368. 316. <
5 5 -17 918. 421. 569. <
1 6 17 780. 211. 284. <
1 6 -17 813. 537. 337. <
2 6 17 1569. 1126. 285. o
2 6 -17 1613. 937. 295. o
3 6 17 229. 53. 263. <
3 6 -17 243. 421. 337. <
4 6 17 2573. 2021. 296. o
4 6 -17 2552. 2295. 337. o
5 6 17 129. 947. 273. o
5 6 -17 121. 558. 400. <
6 6 17 610. 1168. 379. o
6 6 -17 629. 558. 737. <
1 7 17 9945. 17042. 226. o
1 7 -17 9962. 16284. 310. o
2 7 17 916. 284. 242. <
2 7 -17 923. 21. 295. <
3 7 17 3221. 3263. 284. o
3 7 -17 3222. 3737. 304. o
4 7 17 1334. 411. 274. <
4 7 -17 1327. 221. 379. <
5 7 17 737. 811. 284. <
5 7 -17 738. 1168. 410. <
6 7 17 198. 642. 273. <
6 7 -17 193. 1305. 420. o
7 7 17 54. 811. 379. <
7 7 -17 52. 947. 768. <
1 8 17 21. 84. 263. <
1 8 -17 23. 663. 358. <
2 8 17 19. 11. 305. <
2 8 -17 20. 484. 389. <
3 8 17 226. 200. 316. <
3 8 -17 229. 158. 347. <
4 8 17 16. 968. 315. o
4 8 -17 14. 926. 326. <
5 8 17 200. 895. 294. o
5 8 -17 200. 1495. 389. o
1 9 17 3840. 6800. 301. o
1 9 -17 3858. 6989. 398. o
2 9 17 291. 989. 305. o
2 9 -17 297. 632. 410. <
3 9 17 2296. 3095. 303. o
3 9 -17 2284. 3242. 398. o
4 9 17 445. 653. 305. <
4 9 -17 448. 811. 389. <
0 0 18 50085. 49610. 1216. o
0 0 -18 50180. 49294. 1304. o
0 1 18 2702. 1000. 454. <
0 1 -18 2620. 1158. 423. <
1 1 18 4760. 4895. 442. o
1 1 -18 4814. 4463. 464. o
0 2 18 8162. 7221. 415. o
0 2 -18 8225. 6989. 427. o
1 2 18 7710. 6053. 304. o
1 2 -18 7516. 5621. 336. o
2 2 18 20186. 18726. 499. o
2 2 -18 20045. 17547. 681. o
0 3 18 23479. 22242. 479. o
0 3 -18 23146. 21263. 577. o
1 3 18 6662. 5358. 281. o
1 3 -18 6804. 4789. 305. o
2 3 18 3098. 2842. 264. o
2 3 -18 2938. 2737. 369. o
3 3 18 2563. 937. 360. <
3 3 -18 2548. 568. 559. <
0 4 18 7312. 5916. 385. o
0 4 -18 7472. 5821. 428. o
1 4 18 977. 1253. 242. o
1 4 -18 954. 937. 316. <
2 4 18 475. 189. 263. <
2 4 -18 446. 411. 295. <
3 4 18 583. 484. 242. <
3 4 -18 555. 337. 421. <
4 4 18 2995. 1642. 381. o
4 4 -18 3017. 2379. 496. o
0 5 18 1367. 1989. 399. o
0 5 -18 1393. 2663. 451. o
1 5 18 1794. 1768. 263. o
1 5 -18 1801. 1453. 369. o
2 5 18 4001. 4537. 250. o
2 5 -18 3823. 4537. 334. o
3 5 18 5163. 4400. 277. o
3 5 -18 5142. 4221. 392. o
4 5 18 1230. 1011. 232. o
4 5 -18 1226. 1221. 453. <
5 5 18 1299. 642. 379. <
5 5 -18 1265. 1316. 484. <
0 6 18 2585. 811. 339. <
0 6 -18 2529. 800. 559. <
1 6 18 109. 211. 274. <
1 6 -18 108. 821. 315. <
2 6 18 836. 579. 242. <
2 6 -18 849. 611. 347. <
3 6 18 4964. 7105. 249. o
3 6 -18 4961. 7021. 337. o
4 6 18 324. 663. 231. <
4 6 -18 316. 526. 337. <
5 6 18 1045. 1032. 263. o
5 6 -18 1045. 1400. 431. o
6 6 18 2378. 2200. 453. o
6 6 -18 2424. 568. 601. <
0 7 18 633. 263. 347. <
0 7 -18 582. 484. 537. <
1 7 18 1281. 1611. 284. o
1 7 -18 1275. 1779. 326. o
2 7 18 431. 495. 284. <
2 7 -18 447. 453. 284. <
3 7 18 638. 895. 284. o
3 7 -18 658. 611. 316. <
4 7 18 281. 242. 316. <
4 7 -18 265. 1095. 347. o
5 7 18 844. 1905. 293. o
5 7 -18 831. 768. 400. <
6 7 18 766. 1768. 304. o
6 7 -18 772. 1495. 452. o
0 8 18 377. 158. 358. <
0 8 -18 391. 716. 558. <
1 8 18 963. 2126. 282. o
1 8 -18 975. 2000. 367. o
2 8 18 1467. 1737. 284. o
2 8 -18 1428. 1063. 348. o
3 8 18 910. 1937. 325. o
3 8 -18 917. 2495. 356. o
4 8 18 453. 874. 273. o
4 8 -18 470. 642. 358. <
5 8 18 2093. 3410. 302. o
5 8 -18 2092. 3116. 419. o
0 9 18 1798. 3042. 419. o
0 9 -18 1806. 3379. 503. o
1 9 18 561. 1653. 304. o
1 9 -18 561. 1221. 421. <
2 9 18 224. 1053. 326. o
2 9 -18 230. 1295. 431. o
3 9 18 599. 768. 274. <
3 9 -18 605. 1042. 389. <
1 1 19 701. 358. 400. <
1 1 -19 648. 453. 421. <
1 2 19 4878. 4053. 298. o
1 2 -19 4926. 3821. 309. o
2 2 19 2431. 1000. 380. <
2 2 -19 2469. 768. 506. <
1 3 19 10991. 10589. 278. o
1 3 -19 10770. 10316. 330. o
2 3 19 320. 274. 242. <
2 3 -19 310. 484. 347. <
3 3 19 12611. 11116. 391. o
3 3 -19 12551. 10547. 600. o
1 4 19 3472. 3737. 252. o
1 4 -19 3545. 3610. 295. o
2 4 19 5006. 2516. 261. o
2 4 -19 5064. 2116. 354. o
3 4 19 329. 516. 253. <
3 4 -19 327. 211. 368. <
4 4 19 4415. 2821. 341. o
4 4 -19 4444. 2821. 571. o
1 5 19 15382. 19747. 239. o
1 5 -19 15349. 18663. 371. o
2 5 19 850. 853. 253. o
2 5 -19 857. 821. 326. <
3 5 19 10700. 10926. 261. o
3 5 -19 10615. 11052. 397. o
4 5 19 1878. 1526. 243. o
4 5 -19 1885. 1337. 348. o
5 5 19 2792. 1989. 391. o
5 5 -19 2749. 1074. 601. <
1 6 19 183. 347. 242. <
1 6 -19 186. 358. 358. <
2 6 19 486. 642. 284. <
2 6 -19 480. 789. 326. <
3 6 19 165. 411. 263. <
3 6 -19 164. 74. 337. <
4 6 19 2571. 1821. 275. o
4 6 -19 2613. 1232. 370. o
5 6 19 431. 1074. 284. o
5 6 -19 423. 705. 305. <
6 6 19 115. 1168. 399. <
6 6 -19 123. 600. 547. <
1 7 19 10040. 15326. 312. o
1 7 -19 10062. 15768. 403. o
2 7 19 1493. 1526. 263. o
2 7 -19 1463. 1537. 326. o
3 7 19 3749. 4737. 291. o
3 7 -19 3720. 4579. 355. o
4 7 19 2014. 2074. 274. o
4 7 -19 2044. 1989. 368. o
5 7 19 1443. 1411. 284. o
5 7 -19 1425. 1442. 432. o
6 7 19 1071. 1032. 284. o
6 7 -19 1088. 1800. 399. o
1 8 19 546. 1200. 294. o
1 8 -19 547. 1011. 358. <
2 8 19 52. 326. 284. <
2 8 -19 49. 137. 368. <
3 8 19 112. 1021. 326. o
3 8 -19 100. 716. 347. <
4 8 19 125. 484. 305. <
4 8 -19 122. 947. 389. <
5 8 19 252. 1274. 326. o
5 8 -19 260. 863. 421. <
1 9 19 3308. 5705. 327. o
1 9 -19 3311. 4695. 396. o
2 9 19 353. 1316. 304. o
2 9 -19 344. 674. 389. <
3 9 19 2152. 2905. 282. o
3 9 -19 2152. 2979. 399. o
0 0 20 57011. 65221. 1219. o
0 0 -20 57037. 64221. 1234. o
0 1 20 40734. 48705. 421. o
0 1 -20 40906. 45810. 456. o
1 1 20 47518. 47831. 593. o
1 1 -20 47536. 45800. 605. o
0 2 20 3028. 1168. 392. o
0 2 -20 2576. 1053. 391. <
1 2 20 13662. 15063. 320. o
1 2 -20 13669. 14263. 319. o
2 2 20 76429. 70894. 809. o
2 2 -20 76731. 67789. 1067. o
0 3 20 4348. 3968. 359. o
0 3 -20 4379. 3779. 444. o
1 3 20 14751. 17547. 286. o
1 3 -20 14752. 16147. 363. o
2 3 20 35554. 34179. 392. o
2 3 -20 35608. 34221. 540. o
3 3 20 58056. 46452. 774. o
3 3 -20 58054. 44621. 874. o
0 4 20 88669. 96684. 415. o
0 4 -20 88785. 89262. 732. o
1 4 20 16908. 16305. 334. o
1 4 -20 16979. 15379. 407. o
2 4 20 10130. 10958. 243. o
2 4 -20 10034. 11179. 392. o
3 4 20 8703. 7295. 274. o
3 4 -20 8686. 7368. 386. o
4 4 20 51610. 49094. 568. o
4 4 -20 51753. 50558. 779. o
0 5 20 25403. 23842. 535. o
0 5 -20 25387. 23484. 600. o
1 5 20 25698. 23810. 362. o
1 5 -20 25737. 23252. 496. o
2 5 20 3087. 2611. 244. o
2 5 -20 3110. 2589. 327. o
3 5 20 2798. 3389. 272. o
3 5 -20 2861. 3358. 399. o
4 5 20 9607. 8516. 293. o
4 5 -20 9614. 8663. 437. o
5 5 20 18088. 18063. 463. o
5 5 -20 17998. 17389. 605. o
0 6 20 13396. 25547. 341. o
0 6 -20 13150. 24831. 630. o
1 6 20 8989. 7495. 295. o
1 6 -20 8997. 7526. 367. o
2 6 20 52156. 60663. 1170. o
2 6 -20 52036. 60789. 1210. o
3 6 20 4976. 3095. 291. o
3 6 -20 5011. 3568. 373. o
4 6 20 1855. 1747. 274. o
4 6 -20 1817. 2000. 389. o
5 6 20 5174. 3316. 260. o
5 6 -20 5203. 4253. 403. o
6 6 20 9704. 7516. 463. o
6 6 -20 9681. 7168. 650. o
0 7 20 2161. 1695. 369. o
0 7 -20 2176. 1558. 548. <
1 7 20 6842. 7916. 287. o
1 7 -20 6898. 7621. 428. o
2 7 20 8727. 6632. 308. o
2 7 -20 8748. 6295. 350. o
3 7 20 8776. 8989. 293. o
3 7 -20 8724. 9579. 373. o
4 7 20 1678. 1716. 305. o
4 7 -20 1688. 1421. 390. o
5 7 20 3039. 3042. 316. o
5 7 -20 3047. 3168. 452. o
6 7 20 2561. 2337. 285. o
6 7 -20 2552. 2389. 400. o
0 8 20 29270. 40073. 279. o
0 8 -20 29082. 38210. 697. o
1 8 20 2716. 1789. 317. o
1 8 -20 2715. 1947. 401. o
2 8 20 3261. 6642. 289. o
2 8 -20 3207. 6326. 378. o
3 8 20 4801. 4032. 308. o
3 8 -20 4803. 3958. 413. o
4 8 20 10746. 11316. 310. o
4 8 -20 10788. 9758. 448. o
5 8 20 1379. 916. 295. o
5 8 -20 1378. 600. 421. <
0 9 20 2849. 2400. 422. o
0 9 -20 2837. 1768. 506. o
1 9 20 2611. 2968. 336. o
1 9 -20 2598. 3505. 461. o
2 9 20 1311. 1526. 294. o
2 9 -20 1307. 1432. 410. o
3 9 20 4174. 5200. 333. o
3 9 -20 4186. 4937. 482. o
1 1 21 77697. 89020. 1771. o
1 1 -21 77706. 89747. 1784. o
1 2 21 20270. 18052. 359. o
1 2 -21 20316. 17747. 382. o
2 2 21 315. -116. 389. <
2 2 -21 313. 305. 505. <
1 3 21 50909. 51168. 402. o
1 3 -21 50710. 49758. 480. o
2 3 21 4406. 4600. 273. o
2 3 -21 4493. 4158. 380. o
3 3 21 32070. 33010. 467. o
3 3 -21 32129. 31168. 593. o
1 4 21 25771. 29252. 302. o
1 4 -21 25677. 27326. 358. o
2 4 21 730. 105. 253. <
2 4 -21 708. -53. 358. <
3 4 21 4277. 3905. 254. o
3 4 -21 4264. 4421. 410. o
4 4 21 1021. 242. 316. <
4 4 -21 1068. -295. 484. <
1 5 21 27632. 23947. 378. o
1 5 -21 27822. 23842. 499. o
2 5 21 219. 642. 263. <
2 5 -21 216. 758. 316. <
3 5 21 19630. 19831. 302. o
3 5 -21 19706. 19137. 469. o
4 5 21 1. 484. 242. <
4 5 -21 2. 716. 379. <
5 5 21 8612. 9410. 416. o
5 5 -21 8730. 10642. 613. o
1 6 21 6124. 7147. 267. o
1 6 -21 6159. 6789. 334. o
2 6 21 110. -211. 253. <
2 6 -21 110. 232. 337. <
3 6 21 2258. 3421. 270. o
3 6 -21 2260. 2863. 367. o
4 6 21 346. 621. 242. <
4 6 -21 359. 411. 432. <
5 6 21 30. 484. 295. <
5 6 -21 33. 1042. 357. <
6 6 21 338. 453. 347. <
6 6 -21 342. 1432. 684. <
1 7 21 13376. 11526. 344. o
1 7 -21 13275. 10821. 439. o
2 7 21 593. 1400. 273. o
2 7 -21 577. 1579. 336. o
3 7 21 7181. 8200. 309. o
3 7 -21 7153. 7210. 379. o
4 7 21 1497. 3832. 299. o
4 7 -21 1510. 3158. 397. o
5 7 21 5579. 5400. 306. o
5 7 -21 5682. 5347. 475. o
6 7 21 35. 1116. 305. o
6 7 -21 39. 1284. 399. o
1 8 21 341. 579. 295. <
1 8 -21 349. 526. 400. <
2 8 21 61. 421. 284. <
2 8 -21 63. 863. 400. <
3 8 21 94. 916. 315. <
3 8 -21 95. 726. 368. <
4 8 21 210. 1116. 315. o
4 8 -21 195. 937. 389. <
1 9 21 3846. 3547. 317. o
1 9 -21 3850. 3874. 453. o
2 9 21 410. 1884. 293. o
2 9 -21 407. 1874. 430. o
0 0 -22 159302. 171609. 1304. o
0 1 22 12240. 14410. 457. o
0 1 -22 12138. 13884. 439. o
1 1 22 946. 1084. 379. <
1 1 -22 929. 1000. 421. <
0 2 22 86013. 97031. 1939. o
0 2 -22 86256. 89873. 571. o
1 2 22 1307. 1853. 273. o
1 2 -22 1308. 1863. 283. o
2 2 22 74508. 79852. 607. o
2 2 -22 73765. 76168. 861. o
0 3 22 1046. 674. 379. <
0 3 -22 1026. 1011. 432. <
1 3 22 7658. 5284. 338. o
1 3 -22 7525. 4926. 349. o
2 3 22 12736. 12926. 282. o
2 3 -22 12594. 11947. 405. o
3 3 22 2350. 884. 328. <
3 3 -22 2459. 1568. 580. <
0 4 22 29518. 26884. 542. o
0 4 -22 29300. 24863. 602. o
1 4 22 3110. 2716. 285. o
1 4 -22 3105. 3305. 326. o
2 4 22 15700. 14095. 305. o
2 4 -22 15640. 13884. 447. o
3 4 22 1609. 1200. 243. o
3 4 -22 1603. 1611. 347. o
4 4 22 14034. 13358. 406. o
4 4 -22 13889. 13779. 580. o
0 5 22 12202. 13610. 495. o
0 5 -22 12141. 13021. 521. o
1 5 22 114. 379. 253. <
1 5 -22 119. 274. 347. <
2 5 22 49. 905. 252. o
2 5 -22 45. 137. 305. <
3 5 22 7743. 5947. 275. o
3 5 -22 7771. 6358. 427. o
4 5 22 1833. 1147. 243. o
4 5 -22 1827. 1084. 327. o
5 5 22 381. 958. 368. <
5 5 -22 372. 168. 484. <
0 6 22 3414. 316. 413. <
0 6 -22 3384. 568. 549. <
1 6 22 2216. 1632. 275. o
1 6 -22 2209. 1474. 338. o
2 6 22 4664. 2326. 301. o
2 6 -22 4619. 2421. 342. o
3 6 22 1400. 400. 232. <
3 6 -22 1413. 779. 348. <
4 6 22 2887. 2579. 285. o
4 6 -22 2851. 2547. 358. o
5 6 22 1603. 1432. 284. o
5 6 -22 1598. 926. 390. <
6 6 22 5508. 7874. 475. o
6 6 -22 5547. 6884. 649. o
0 7 22 138. -126. 368. <
0 7 -22 147. 358. 589. <
1 7 22 1033. 1126. 295. o
1 7 -22 997. 1053. 410. <
2 7 22 1474. 2042. 283. o
2 7 -22 1443. 1232. 316. o
3 7 22 33. 274. 263. <
3 7 -22 31. 726. 368. <
4 7 22 432. 1305. 326. o
4 7 -22 442. 958. 410. <
5 7 22 884. 1358. 315. o
5 7 -22 878. 1505. 452. o
6 7 22 296. 884. 294. <
6 7 -22 294. 874. 442. <
0 8 22 733. 158. 453. <
0 8 -22 740. 1116. 631. <
1 8 22 474. 632. 274. <
1 8 -22 460. 684. 368. <
2 8 22 756. 389. 316. <
2 8 -22 718. 758. 379. <
3 8 22 1839. 2084. 315. o
3 8 -22 1836. 1842. 337. o
4 8 22 2560. 2558. 316. o
4 8 -22 2534. 2400. 421. o
0 9 22 616. 642. 484. <
0 9 -22 600. 0. 558. <
1 9 22 368. 947. 305. o
1 9 -22 381. 1779. 452. o
2 9 22 555. 1116. 315. o
2 9 -22 564. 1368. 473. <
1 1 23 76827. 85473. 270. o
1 1 -23 77039. 81126. 516. o
1 2 23 2826. 3568. 271. o
1 2 -23 2844. 3347. 283. o
2 2 23 3775. 2821. 444. o
2 2 -23 3756. 2453. 486. o
1 3 23 24324. 25126. 376. o
1 3 -23 24480. 24758. 395. o
2 3 23 556. 211. 242. <
2 3 -23 592. 116. 358. <
3 3 23 9928. 10274. 387. o
3 3 -23 9824. 10042. 515. o
1 4 23 4255. 4747. 282. o
1 4 -23 4227. 4568. 346. o
2 4 23 4835. 3316. 269. o
2 4 -23 4793. 3074. 373. o
3 4 23 811. 811. 232. o
3 4 -23 808. 800. 347. <
4 4 23 4724. 3937. 371. o
4 4 -23 4776. 3516. 497. o
1 5 23 1374. 947. 274. o
1 5 -23 1396. 1158. 358. o
2 5 23 848. 74. 263. <
2 5 -23 844. 189. 337. <
3 5 23 1406. 1158. 274. o
3 5 -23 1397. 1474. 432. o
4 5 23 583. 1084. 263. o
4 5 -23 546. 853. 410. <
5 5 23 1281. 1947. 357. o
5 5 -23 1254. 1674. 589. <
1 6 23 1284. 1589. 273. o
1 6 -23 1285. 1421. 337. o
2 6 23 920. 1053. 274. o
2 6 -23 931. 1400. 326. o
3 6 23 270. 389. 284. <
3 6 -23 278. 589. 347. <
4 6 23 1687. 1221. 264. o
4 6 -23 1704. 1389. 369. o
5 6 23 169. 389. 274. <
5 6 -23 161. 495. 400. <
6 6 23 390. 937. 379. <
6 6 -23 392. 884. 610. <
1 7 23 469. 2032. 282. o
1 7 -23 507. 1653. 462. o
2 7 23 857. 547. 295. <
2 7 -23 836. 705. 326. <
3 7 23 91. 474. 295. <
3 7 -23 93. 305. 358. <
4 7 23 1060. 642. 253. <
4 7 -23 1055. 874. 421. <
5 7 23 580. 1074. 294. o
5 7 -23 569. 2063. 441. o
1 8 23 286. 589. 284. <
1 8 -23 274. 1074. 400. <
2 8 23 28. 579. 295. <
2 8 -23 31. 895. 410. <
3 8 23 154. 1526. 325. o
3 8 -23 156. 905. 358. <
4 8 23 11. 1147. 304. o
4 8 -23 8. 389. 421. <
1 9 23 226. 1200. 326. o
1 9 -23 240. 1916. 430. o
0 0 24 4214. 1663. 750. <
0 0 -24 4311. 3474. 770. o
0 1 24 15316. 12916. 431. o
0 1 -24 15305. 12010. 448. o
1 1 24 20280. 22221. 449. o
1 1 -24 20389. 22852. 498. o
0 2 24 990. 632. 421. <
0 2 -24 1007. 547. 390. <
1 2 24 1437. 168. 274. <
1 2 -24 1494. 126. 264. <
2 2 24 3591. 3568. 421. o
2 2 -24 3509. 3589. 495. o
0 3 24 6866. 6389. 392. o
0 3 -24 7046. 6379. 434. o
1 3 24 19357. 19674. 375. o
1 3 -24 19278. 19074. 361. o
2 3 24 16556. 14484. 322. o
2 3 -24 16263. 14010. 412. o
3 3 24 10584. 12674. 372. o
3 3 -24 10385. 10947. 438. o
0 4 24 3445. 2200. 434. o
0 4 -24 3341. 2158. 454. o
1 4 24 3105. 1579. 287. o
1 4 -24 3025. 1474. 298. o
2 4 24 343. 547. 242. <
2 4 -24 404. 105. 379. <
3 4 24 1664. 779. 264. <
3 4 -24 1683. 1221. 348. o
4 4 24 2881. 2958. 326. o
4 4 -24 2799. 2537. 569. o
0 5 24 15657. 16895. 527. o
0 5 -24 15509. 15684. 546. o
1 5 24 9158. 10600. 281. o
1 5 -24 9128. 10463. 380. o
2 5 24 1552. 1442. 284. o
2 5 -24 1627. 1189. 369. o
3 5 24 9725. 9484. 276. o
3 5 -24 9635. 8779. 374. o
4 5 24 1598. 1379. 295. o
4 5 -24 1597. 1305. 358. o
5 5 24 4842. 6505. 415. o
5 5 -24 4754. 5768. 492. o
0 6 24 416. 379. 411. <
0 6 -24 406. 158. 526. <
1 6 24 2450. 2474. 284. o
1 6 -24 2432. 1842. 348. o
2 6 24 2468. 1832. 275. o
2 6 -24 2402. 1463. 359. o
3 6 24 271. 726. 252. <
3 6 -24 269. 674. 379. <
4 6 24 452. 242. 295. <
4 6 -24 485. -295. 421. <
5 6 24 1992. 2674. 304. o
5 6 -24 1952. 3326. 408. o
6 6 24 1748. 2737. 472. o
6 6 -24 1736. 1916. 652. <
0 7 24 599. 316. 411. <
0 7 -24 615. 684. 526. <
1 7 24 5106. 5695. 281. o
1 7 -24 5101. 5716. 366. o
2 7 24 2062. 1726. 274. o
2 7 -24 2047. 1811. 348. o
3 7 24 3794. 4568. 313. o
3 7 -24 3748. 4168. 420. o
4 7 24 485. 958. 305. o
4 7 -24 500. 1105. 505. <
5 7 24 2573. 2853. 315. o
5 7 -24 2571. 3126. 462. o
0 8 24 2402. 947. 464. <
0 8 -24 2336. 1737. 611. <
1 8 24 240. 1126. 273. o
1 8 -24 228. 1200. 421. <
2 8 24 60. 1168. 315. o
2 8 -24 55. 853. 410. <
3 8 24 2056. 3768. 311. o
3 8 -24 2037. 3389. 387. o
4 8 24 1315. 2000. 315. o
4 8 -24 1279. 1484. 442. o
1 1 25 58481. 69789. 27. o
1 1 -25 58441. 67368. 281. o
1 2 25 1412. 1000. 285. o
1 2 -25 1378. 884. 253. o
2 2 25 4178. 1958. 435. o
2 2 -25 4128. 2221. 456. o
1 3 25 20708. 21579. 355. o
1 3 -25 20834. 20568. 362. o
2 3 25 694. 947. 263. o
2 3 -25 724. 232. 369. <
3 3 25 10151. 11337. 423. o
3 3 -25 10253. 11495. 562. o
1 4 25 1301. 1284. 274. o
1 4 -25 1276. 1137. 305. o
2 4 25 3507. 2621. 276. o
2 4 -25 3496. 2211. 340. o
3 4 25 267. 547. 252. <
3 4 -25 281. -63. 347. <
4 4 25 6609. 3663. 399. o
4 4 -25 6636. 4453. 605. o
1 5 25 2985. 1537. 266. o
1 5 -25 2940. 1421. 329. o
2 5 25 328. 337. 284. <
2 5 -25 337. 189. 316. <
3 5 25 4030. 3410. 276. o
3 5 -25 4082. 3979. 421. o
4 5 25 404. 295. 253. <
4 5 -25 417. -84. 358. <
5 5 25 3892. 5284. 417. o
5 5 -25 3941. 4737. 556. o
1 6 25 550. 432. 274. <
1 6 -25 572. 305. 316. <
2 6 25 1430. 1105. 274. o
2 6 -25 1440. 484. 379. <
3 6 25 383. 832. 252. o
3 6 -25 386. 284. 400. <
4 6 25 560. 1263. 294. o
4 6 -25 557. 926. 358. <
5 6 25 5. 789. 263. <
5 6 -25 3. 1221. 336. o
6 6 25 1069. 1316. 431. o
6 6 -25 1069. 1358. 547. <
1 7 25 572. 832. 284. <
1 7 -25 546. 411. 347. <
2 7 25 544. 179. 305. <
2 7 -25 555. 947. 379. <
3 7 25 1484. 1032. 285. o
3 7 -25 1492. 1347. 411. o
4 7 25 509. 663. 326. <
4 7 -25 518. 1642. 441. o
5 7 25 3411. 4663. 322. o
5 7 -25 3434. 5947. 424. o
1 8 25 192. 1074. 294. o
1 8 -25 197. 1168. 421. <
2 8 25 59. 926. 336. <
2 8 -25 53. 947. 442. <
3 8 25 154. 768. 294. <
3 8 -25 142. 1074. 389. <
0 0 26 59944. 52958. 1108. o
0 0 -26 60136. 55305. 1220. o
0 1 26 1723. 568. 380. <
0 1 -26 1738. 568. 338. <
1 1 26 14890. 15116. 429. o
1 1 -26 14868. 14937. 452. o
0 2 26 25041. 30747. 422. o
0 2 -26 24886. 28874. 455. o
1 2 26 9815. 8863. 333. o
1 2 -26 9771. 8137. 307. o
2 2 26 22295. 19558. 544. o
2 2 -26 22297. 18652. 621. o
0 3 26 21599. 20968. 481. o
0 3 -26 21628. 20000. 512. o
1 3 26 19790. 17537. 387. o
1 3 -26 19994. 17484. 410. o
2 3 26 1121. 221. 264. <
2 3 -26 1156. 295. 379. <
3 3 26 2815. 3842. 376. o
3 3 -26 2884. 3116. 536. o
0 4 26 10272. 6642. 459. o
0 4 -26 10421. 6116. 451. o
1 4 26 3224. 2242. 297. o
1 4 -26 3279. 2147. 318. o
2 4 26 4548. 4084. 265. o
2 4 -26 4602. 3895. 371. o
3 4 26 2658. 1863. 265. o
3 4 -26 2606. 1747. 391. o
4 4 26 5637. 5305. 412. o
4 4 -26 5746. 5358. 443. o
0 5 26 570. 347. 442. <
0 5 -26 594. 1179. 431. <
1 5 26 5348. 5158. 285. o
1 5 -26 5430. 4505. 351. o
2 5 26 6011. 5800. 306. o
2 5 -26 6024. 5453. 371. o
3 5 26 14355. 13421. 347. o
3 5 -26 14309. 13252. 471. o
4 5 26 2119. 1389. 285. o
4 5 -26 2124. 1411. 369. o
5 5 26 1471. 1347. 369. o
5 5 -26 1486. 1474. 621. <
0 6 26 1160. 137. 400. <
0 6 -26 1180. 495. 548. <
1 6 26 836. 537. 274. <
1 6 -26 820. 295. 327. <
2 6 26 3822. 2221. 309. o
2 6 -26 3874. 1484. 372. o
3 6 26 4559. 3568. 319. o
3 6 -26 4562. 3705. 455. o
4 6 26 2782. 2874. 316. o
4 6 -26 2727. 3905. 397. o
5 6 26 51. 589. 284. <
5 6 -26 54. 337. 410. <
6 6 26 4513. 5410. 439. o
6 6 -26 4524. 5232. 525. o
0 7 26 1482. 1674. 400. o
0 7 -26 1485. 1253. 579. <
1 7 26 4392. 4389. 305. o
1 7 -26 4400. 3547. 423. o
2 7 26 1025. 1042. 305. o
2 7 -26 1044. 1032. 379. <
3 7 26 2389. 2411. 316. o
3 7 -26 2376. 2253. 421. o
4 7 26 496. 1074. 294. o
4 7 -26 485. 1747. 399. o
5 7 26 2898. 3053. 326. o
5 7 -26 2870. 2800. 421. o
0 8 26 2101. 832. 422. <
0 8 -26 2184. 1411. 706. <
1 8 26 1491. 1368. 316. o
1 8 -26 1511. 1474. 421. o
2 8 26 714. 979. 305. o
2 8 -26 735. 1063. 379. <
3 8 26 37. 1147. 326. o
3 8 -26 39. 1147. 421. <
1 1 27 1299. 632. 379. <
1 1 -27 1386. 484. 358. <
1 2 27 11503. 10674. 313. o
1 2 -27 11572. 9800. 311. o
2 2 27 356. 505. 432. <
2 2 -27 355. 274. 411. <
1 3 27 2058. 1579. 295. o
1 3 -27 2135. 1789. 306. o
2 3 27 2493. 1926. 264. o
2 3 -27 2480. 2347. 379. o
3 3 27 2615. 2674. 347. o
3 3 -27 2521. 2316. 548. o
1 4 27 10669. 11726. 295. o
1 4 -27 10759. 11105. 366. o
2 4 27 597. 726. 274. <
2 4 -27 616. 684. 368. <
3 4 27 2633. 4147. 258. o
3 4 -27 2611. 3210. 378. o
4 4 27 916. -179. 369. <
4 4 -27 913. -221. 611. <
1 5 27 3705. 4779. 322. o
1 5 -27 3792. 3916. 368. o
2 5 27 8. 179. 274. <
2 5 -27 9. 147. 368. <
3 5 27 2883. 2116. 296. o
3 5 -27 2791. 1516. 402. o
4 5 27 182. 1463. 294. o
4 5 -27 177. 411. 379. <
5 5 27 1919. 1853. 369. o
5 5 -27 1866. 2263. 621. o
1 6 27 2573. 3284. 303. o
1 6 -27 2594. 3821. 365. o
2 6 27 107. 11. 274. <
2 6 -27 105. 453. 358. <
3 6 27 558. 1000. 305. o
3 6 -27 545. 968. 516. <
4 6 27 294. 1158. 305. o
4 6 -27 287. 684. 421. <
5 6 27 17. 1095. 305. o
5 6 -27 17. 1211. 431. <
1 7 27 3490. 3137. 296. o
1 7 -27 3526. 3295. 443. o
2 7 27 556. 1979. 293. o
2 7 -27 549. 2505. 366. o
3 7 27 1957. 2074. 326. o
3 7 -27 1957. 2379. 399. o
4 7 27 596. 2358. 324. o
4 7 -27 591. 1326. 431. o
1 8 27 103. 747. 315. <
1 8 -27 96. 168. 453. <
2 8 27 42. 737. 305. <
2 8 -27 42. 1168. 399. <
0 0 28 45523. 60473. 973. o
0 0 -28 45623. 59705. 988. o
0 1 28 95. 368. 389. <
0 1 -28 88. 316. 379. <
1 1 28 1205. 2189. 420. o
1 1 -28 1227. 1895. 399. o
0 2 28 10646. 9832. 416. o
0 2 -28 10506. 9105. 409. o
1 2 28 576. 1379. 283. o
1 2 -28 593. 1021. 273. o
2 2 28 9781. 12326. 479. o
2 2 -28 10001. 11937. 558. o
0 3 28 2200. 2737. 399. o
0 3 -28 2219. 2179. 421. o
1 3 28 4881. 5021. 305. o
1 3 -28 4784. 5032. 304. o
2 3 28 171. 84. 253. <
2 3 -28 162. -316. 379. <
3 3 28 1661. 232. 359. <
3 3 -28 1744. 989. 474. <
0 4 28 2383. 674. 412. <
0 4 -28 2560. 589. 412. <
1 4 28 170. 347. 284. <
1 4 -28 149. 147. 326. <
2 4 28 1180. 747. 274. <
2 4 -28 1110. 589. 369. <
3 4 28 369. 632. 274. <
3 4 -28 383. 716. 368. <
4 4 28 756. 200. 390. <
4 4 -28 859. -95. 484. <
0 5 28 558. 168. 516. <
0 5 -28 534. 347. 453. <
1 5 28 259. 547. 295. <
1 5 -28 267. 1400. 357. o
2 5 28 1203. 1579. 284. o
2 5 -28 1199. 1695. 368. o
3 5 28 5326. 6021. 302. o
3 5 -28 5268. 6053. 376. o
4 5 28 22. 453. 295. <
4 5 -28 21. 632. 421. <
5 5 28 315. 747. 379. <
5 5 -28 324. 1453. 578. <
0 6 28 3223. 7958. 511. o
0 6 -28 3212. 6958. 665. o
1 6 28 88. 347. 295. <
1 6 -28 95. 716. 347. <
2 6 28 1331. 1284. 284. o
2 6 -28 1376. 1474. 368. o
3 6 28 411. 632. 305. <
3 6 -28 405. 926. 389. <
4 6 28 862. 937. 295. o
4 6 -28 825. 653. 358. <
5 6 28 140. 874. 315. <
5 6 -28 142. 337. 410. <
0 7 28 492. 800. 431. <
0 7 -28 493. 2147. 725. <
1 7 28 622. 1579. 315. o
1 7 -28 613. 1663. 431. o
2 7 28 155. 642. 295. <
2 7 -28 155. 589. 389. <
3 7 28 140. 863. 305. <
3 7 -28 143. 1211. 442. <
4 7 28 295. 505. 316. <
4 7 -28 303. 1000. 400. <
0 8 28 1347. 3053. 450. o
0 8 -28 1358. 3410. 629. o
1 8 28 71. 632. 316. <
1 8 -28 68. 1179. 431. <
2 8 28 1498. 3305. 354. o
2 8 -28 1512. 3410. 428. o
1 1 29 30358. 28916. 507. o
1 1 -29 30500. 26989. 536. o
1 2 29 3225. 3463. 305. o
1 2 -29 3246. 3358. 294. o
2 2 29 1091. 789. 421. <
2 2 -29 1069. 600. 505. <
1 3 29 12903. 13326. 322. o
1 3 -29 12941. 13074. 367. o
2 3 29 456. 568. 263. <
2 3 -29 454. 768. 358. <
3 3 29 6446. 5905. 413. o
3 3 -29 6413. 7147. 661. o
1 4 29 2354. 3084. 303. o
1 4 -29 2396. 3116. 346. o
2 4 29 832. 411. 284. <
2 4 -29 842. 537. 390. <
3 4 29 169. 737. 273. <
3 4 -29 154. 653. 389. <
4 4 29 1551. 1053. 400. <
4 4 -29 1584. 1263. 569. <
1 5 29 2028. 1916. 316. o
1 5 -29 2042. 1442. 401. o
2 5 29 284. 705. 295. <
2 5 -29 279. 747. 379. <
3 5 29 1848. 1916. 305. o
3 5 -29 1791. 1747. 379. o
4 5 29 543. 1200. 294. o
4 5 -29 554. 1095. 389. <
5 5 29 1255. 1716. 442. o
5 5 -29 1226. 1326. 537. <
1 6 29 260. 895. 305. <
1 6 -29 247. 1158. 357. o
2 6 29 334. 316. 316. <
2 6 -29 329. 747. 368. <
3 6 29 67. 147. 316. <
3 6 -29 71. 874. 410. <
4 6 29 201. 947. 294. o
4 6 -29 196. 1000. 431. <
5 6 29 348. 884. 305. <
5 6 -29 349. 1347. 452. <
1 7 29 310. 305. 305. <
1 7 -29 327. 695. 410. <
2 7 29 587. 2011. 314. o
2 7 -29 579. 2211. 388. o
3 7 29 391. 705. 295. <
3 7 -29 392. 1074. 484. <
0 0 30 6241. 4642. 855. o
0 0 -30 6277. 5021. 802. o
0 1 30 837. 1042. 347. <
0 1 -30 873. 989. 379. <
1 1 30 18186. 19442. 492. o
1 1 -30 18219. 18463. 471. o
0 2 30 9047. 6495. 453. o
0 2 -30 9154. 6737. 432. o
1 2 30 2196. 611. 286. <
1 2 -30 2170. 768. 265. <
2 2 30 10448. 9663. 478. o
2 2 -30 10488. 9000. 533. o
0 3 30 6687. 4516. 397. o
0 3 -30 6668. 4347. 480. o
1 3 30 9122. 10210. 317. o
1 3 -30 9114. 9537. 366. o
2 3 30 597. 1379. 273. o
2 3 -30 631. 1389. 378. o
3 3 30 17993. 16389. 509. o
3 3 -30 18041. 15305. 609. o
0 4 30 11968. 15252. 447. o
0 4 -30 12014. 14242. 522. o
1 4 30 671. 326. 305. <
1 4 -30 675. 400. 326. <
2 4 30 10287. 9621. 311. o
2 4 -30 10368. 9463. 437. o
3 4 30 800. 453. 263. <
3 4 -30 766. 453. 421. <
4 4 30 8198. 8021. 474. o
4 4 -30 8249. 7779. 665. o
0 5 30 544. 2474. 482. o
0 5 -30 540. 1979. 430. o
1 5 30 9902. 10074. 346. o
1 5 -30 9906. 9716. 443. o
2 5 30 1133. 989. 305. o
2 5 -30 1084. 1063. 400. <
3 5 30 2685. 3895. 312. o
3 5 -30 2675. 2958. 410. o
4 5 30 755. 989. 305. o
4 5 -30 777. 926. 410. <
5 5 30 6932. 7463. 461. o
5 5 -30 6959. 6726. 716. o
0 6 30 8081. 9937. 507. o
0 6 -30 8117. 9642. 742. o
1 6 30 406. 821. 305. <
1 6 -30 399. 505. 400. <
2 6 30 7156. 10389. 312. o
2 6 -30 7190. 9347. 431. o
3 6 30 1542. 1621. 316. o
3 6 -30 1567. 2095. 463. o
4 6 30 3173. 2305. 318. o
4 6 -30 3186. 2821. 422. o
5 6 30 710. 1326. 326. o
5 6 -30 710. 1484. 431. o
0 7 30 300. 1411. 462. o
0 7 -30 276. 1811. 683. <
1 7 30 3489. 3621. 347. o
1 7 -30 3497. 3810. 452. o
2 7 30 597. 632. 316. <
2 7 -30 609. 1284. 400. o
3 7 30 3841. 4010. 315. o
3 7 -30 3849. 4284. 462. o
1 1 31 1478. 1516. 379. o
1 1 -31 1449. 1589. 410. o
1 2 31 653. 705. 274. <
1 2 -31 637. 537. 274. <
2 2 31 2251. 1347. 411. o
2 2 -31 2242. 1211. 517. <
1 3 31 6793. 6537. 307. o
1 3 -31 6803. 5842. 321. o
2 3 31 417. 695. 284. <
2 3 -31 403. 537. 410. <
3 3 31 8635. 8663. 452. o
3 3 -31 8634. 8989. 694. o
1 4 31 748. 1242. 294. o
1 4 -31 702. 1232. 336. o
2 4 31 3067. 2326. 307. o
2 4 -31 3070. 2674. 401. o
3 4 31 348. 1168. 315. o
3 4 -31 357. 1789. 399. o
4 4 31 2370. 2474. 431. o
4 4 -31 2359. 2253. 579. o
1 5 31 12873. 17031. 342. o
1 5 -31 12861. 15674. 416. o
2 5 31 382. 821. 316. <
2 5 -31 386. 389. 389. <
3 5 31 8070. 7874. 328. o
3 5 -31 8107. 7821. 464. o
4 5 31 221. 947. 326. <
4 5 -31 221. 1368. 463. <
5 5 31 3859. 3474. 401. o
5 5 -31 3851. 3210. 496. o
1 6 31 444. 853. 326. <
1 6 -31 438. 537. 389. <
2 6 31 438. 853. 316. <
2 6 -31 430. 1126. 421. <
3 6 31 327. 1358. 336. o
3 6 -31 326. 389. 432. <
4 6 31 1090. 1642. 336. o
4 6 -31 1090. 1916. 452. o
1 7 31 8978. 12810. 381. o
1 7 -31 8926. 12947. 447. o
2 7 31 260. 695. 316. <
2 7 -31 254. 389. 421. <
0 0 32 5051. 1811. 877. <
0 0 -32 5030. 3116. 781. o
0 1 32 4942. 5379. 420. o
0 1 -32 4940. 4884. 421. o
1 1 32 2552. 1379. 422. o
1 1 -32 2529. 1611. 401. o
0 2 32 18921. 19358. 480. o
0 2 -32 18671. 18747. 505. o
1 2 32 740. 95. 295. <
1 2 -32 742. 253. 284. <
2 2 32 6188. 4147. 438. o
2 2 -32 6164. 4284. 510. o
0 3 32 7122. 6895. 433. o
0 3 -32 7087. 7084. 516. o
1 3 32 898. 768. 274. <
1 3 -32 869. 621. 348. <
2 3 32 7269. 7705. 313. o
2 3 -32 7258. 7463. 388. o
3 3 32 3084. 1568. 413. o
3 3 -32 2990. 1032. 538. <
0 4 32 6613. 4779. 458. o
0 4 -32 6646. 5379. 467. o
1 4 32 627. 768. 305. <
1 4 -32 622. 295. 326. <
2 4 32 12633. 13295. 351. o
2 4 -32 12512. 12632. 494. o
3 4 32 340. 537. 305. <
3 4 -32 362. 63. 411. <
4 4 32 4497. 3389. 455. o
4 4 -32 4531. 3684. 633. o
0 5 32 7767. 9989. 559. o
0 5 -32 7736. 9326. 551. o
1 5 32 1407. 1211. 327. o
1 5 -32 1421. 1232. 390. o
2 5 32 1613. 2200. 304. o
2 5 -32 1616. 2211. 431. o
3 5 32 223. 937. 305. o
3 5 -32 236. 884. 421. <
4 5 32 620. 1284. 315. o
4 5 -32 621. 1168. 410. <
5 5 32 903. 1326. 421. o
5 5 -32 895. 1632. 652. <
0 6 32 9779. 8937. 583. o
0 6 -32 9730. 8968. 739. o
1 6 32 551. 874. 326. <
1 6 -32 555. 1653. 420. o
2 6 32 3688. 3421. 317. o
2 6 -32 3684. 2253. 434. o
3 6 32 51. 1000. 315. o
3 6 -32 51. 558. 410. <
4 6 32 3853. 3526. 338. o
4 6 -32 3790. 3210. 412. o
0 7 32 267. 1274. 431. <
0 7 -32 263. 895. 663. <
1 7 32 403. 526. 379. <
1 7 -32 402. 832. 410. <
2 7 32 773. 1347. 326. o
2 7 -32 766. 1484. 442. o
1 1 33 23525. 25979. 483. o
1 1 -33 23542. 24168. 497. o
1 2 33 3917. 3505. 317. o
1 2 -33 3885. 3400. 296. o
2 2 33 873. 884. 442. <
2 2 -33 867. 1074. 484. <
1 3 33 9346. 9284. 327. o
1 3 -33 9235. 8758. 371. o
2 3 33 1061. 1263. 295. o
2 3 -33 1046. 737. 421. <
3 3 33 4699. 6084. 405. o
3 3 -33 4632. 5789. 671. o
1 4 33 4097. 4779. 313. o
1 4 -33 4108. 4653. 367. o
2 4 33 1023. 1337. 305. o
2 4 -33 999. 853. 442. <
3 4 33 823. 1453. 305. o
3 4 -33 825. 1453. 431. o
4 4 33 1017. 1495. 473. o
4 4 -33 1013. 947. 600. <
1 5 33 1370. 1316. 337. o
1 5 -33 1358. 1116. 390. <
2 5 33 156. 589. 305. <
2 5 -33 154. 547. 421. <
3 5 33 1025. 1221. 295. o
3 5 -33 1045. 1011. 389. <
4 5 33 142. 800. 315. <
4 5 -33 143. 1137. 442. <
5 5 33 874. 2000. 430. o
5 5 -33 882. 2663. 651. o
1 6 33 846. 1432. 326. o
1 6 -33 846. 2084. 409. o
2 6 33 227. 1011. 315. o
2 6 -33 229. 926. 421. <
3 6 33 255. 1232. 315. o
3 6 -33 254. 1389. 410. o
1 7 33 144. 1400. 325. o
1 7 -33 141. 737. 400. <
0 0 34 18383. 14179. 945. o
0 0 -34 18241. 12368. 736. o
0 1 34 110. 1221. 399. o
0 1 -34 113. 905. 368. <
1 1 34 5624. 6337. 450. o
1 1 -34 5628. 6053. 388. o
0 2 34 11895. 20126. 410. o
0 2 -34 11916. 18758. 466. o
1 2 34 596. 1937. 314. o
1 2 -34 611. 1484. 294. o
2 2 34 2981. 968. 455. <
2 2 -34 2944. 726. 517. <
0 3 34 1643. 2874. 430. o
0 3 -34 1644. 3821. 544. o
1 3 34 1533. 1642. 316. o
1 3 -34 1558. 2011. 368. o
2 3 34 166. 400. 274. <
2 3 -34 161. 53. 432. <
3 3 34 9101. 9779. 481. o
3 3 -34 9228. 9042. 601. o
0 4 34 576. 495. 463. <
0 4 -34 544. 1232. 463. <
1 4 34 196. 1547. 357. o
1 4 -34 201. 1200. 389. o
2 4 34 932. 1653. 315. o
2 4 -34 991. 1253. 421. <
3 4 34 520. 905. 326. <
3 4 -34 518. 1232. 410. <
4 4 34 423. 1326. 473. <
4 4 -34 398. 1579. 599. <
0 5 34 127. 326. 505. <
0 5 -34 122. 611. 505. <
1 5 34 3621. 4105. 325. o
1 5 -34 3615. 4505. 440. o
2 5 34 668. 1484. 283. o
2 5 -34 672. 1695. 420. o
3 5 34 508. 1368. 315. o
3 5 -34 519. 1263. 452. <
4 5 34 90. 1137. 315. o
4 5 -34 81. 1421. 410. o
0 6 34 530. 989. 452. <
0 6 -34 556. 1411. 621. <
1 6 34 137. 1021. 347. <
1 6 -34 134. 726. 410. <
2 6 34 1203. 3453. 343. o
2 6 -34 1208. 2705. 461. o
3 6 34 378. 1253. 336. o
3 6 -34 368. 1042. 494. <
1 1 35 1055. 853. 442. <
1 1 -35 1022. -242. 421. <
1 2 35 3892. 4137. 326. o
1 2 -35 3824. 3305. 317. o
2 2 35 13. 505. 453. <
2 2 -35 15. 905. 516. <
1 3 35 849. 1305. 305. o
1 3 -35 843. 1284. 368. o
2 3 35 814. 653. 295. <
2 3 -35 797. 1137. 410. <
3 3 35 1112. 1716. 463. o
3 3 -35 1119. 1516. 579. <
1 4 35 3938. 4105. 336. o
1 4 -35 3909. 4432. 388. o
2 4 35 81. 758. 315. <
2 4 -35 78. 232. 400. <
3 4 35 930. 1411. 336. o
3 4 -35 937. 1463. 410. o
4 4 35 102. 1116. 452. <
4 4 -35 95. -74. 600. <
1 5 35 1188. 1568. 305. o
1 5 -35 1169. 1442. 421. o
2 5 35 25. 632. 305. <
2 5 -35 23. 1284. 431. <
3 5 35 1125. 1642. 326. o
3 5 -35 1139. 1168. 421. <
4 5 35 52. 1232. 326. o
4 5 -35 48. 1705. 452. o
1 6 35 1103. 1705. 357. o
1 6 -35 1134. 1084. 400. <
2 6 35 7. 884. 326. <
2 6 -35 7. 947. 452. <
0 0 36 19844. 26400. 1066. o
0 0 -36 19685. 24179. 962. o
0 1 36 1108. 337. 400. <
0 1 -36 1116. 642. 400. <
1 1 36 3299. 3179. 432. o
1 1 -36 3290. 2642. 464. o
0 2 36 17982. 19631. 532. o
0 2 -36 17954. 17274. 553. o
1 2 36 650. 1053. 315. o
1 2 -36 647. 1232. 315. o
2 2 36 6242. 7579. 543. o
2 2 -36 6238. 7326. 554. o
0 3 36 2072. 2853. 430. o
0 3 -36 2100. 2537. 526. o
1 3 36 5746. 4621. 341. o
1 3 -36 5764. 4400. 394. o
2 3 36 1299. 1116. 316. o
2 3 -36 1279. 937. 411. <
3 3 36 402. 705. 474. <
3 3 -36 405. 1305. 589. <
0 4 36 2082. 1811. 495. o
0 4 -36 2083. 1611. 474. o
1 4 36 444. 632. 347. <
1 4 -36 453. 926. 368. <
2 4 36 3734. 2968. 339. o
2 4 -36 3746. 3316. 464. o
3 4 36 129. 1137. 326. o
3 4 -36 135. 1621. 452. o
4 4 36 1012. 2137. 430. o
4 4 -36 1042. 2737. 630. o
0 5 36 785. 968. 495. <
0 5 -36 769. 884. 453. <
1 5 36 1121. 1421. 315. o
1 5 -36 1121. 1274. 400. o
2 5 36 628. 2042. 324. o
2 5 -36 638. 1611. 505. o
3 5 36 4665. 4053. 360. o
3 5 -36 4702. 3684. 455. o
0 6 36 1196. 1442. 558. <
0 6 -36 1168. 347. 653. <
1 6 36 41. 558. 368. <
1 6 -36 40. 1137. 399. <
1 1 37 16530. 15747. 564. o
1 1 -37 16610. 13210. 500. o
1 2 37 1237. 1695. 336. o
1 2 -37 1227. 1379. 316. o
2 2 37 923. 947. 495. <
2 2 -37 920. 1063. 516. <
1 3 37 5542. 4610. 340. o
1 3 -37 5549. 4442. 372. o
2 3 37 413. 642. 305. <
2 3 -37 402. 768. 410. <
3 3 37 2575. 3368. 472. o
3 3 -37 2545. 2032. 558. o
1 4 37 957. 1263. 315. o
1 4 -37 992. 1705. 368. o
2 4 37 973. 1295. 347. o
2 4 -37 964. 989. 463. <
3 4 37 246. 695. 305. <
3 4 -37 251. 895. 368. <
4 4 37 1525. 2526. 462. o
4 4 -37 1528. 2284. 641. o
1 5 37 919. 568. 337. <
1 5 -37 928. 1032. 410. <
2 5 37 113. 579. 326. <
2 5 -37 110. 747. 537. <
0 0 38 5731. 6695. 1019. o
0 0 -38 5687. 5810. 884. o
0 1 38 1208. 821. 463. <
0 1 -38 1209. 1000. 442. <
1 1 38 153. 600. 505. <
1 1 -38 158. 863. 463. <
0 2 38 1016. 3137. 439. o
0 2 -38 1007. 2579. 451. o
1 2 38 1689. 2305. 336. o
1 2 -38 1710. 2379. 325. o
2 2 38 2096. 2095. 495. o
2 2 -38 2148. 2116. 590. o
0 3 38 7444. 8884. 467. o
0 3 -38 7459. 8747. 553. o
1 3 38 89. 663. 305. <
1 3 -38 85. 800. 389. <
2 3 38 2453. 1779. 327. o
2 3 -38 2505. 1021. 433. <
3 3 38 54. 1358. 494. <
3 3 -38 54. 1211. 663. <
0 4 38 1196. 1432. 516. <
0 4 -38 1222. 1800. 505. o
1 4 38 297. 653. 337. <
1 4 -38 287. 484. 389. <
2 4 38 1124. 3095. 354. o
2 4 -38 1117. 2695. 440. o
3 4 38 440. 1074. 315. o
3 4 -38 451. 1263. 505. <
0 5 38 2364. 2432. 484. o
0 5 -38 2388. 2274. 516. o
1 5 38 47. 958. 347. <
1 5 -38 47. 842. 400. <
1 1 39 11143. 11400. 535. o
1 1 -39 11120. 10937. 506. o
1 2 39 966. 1474. 336. o
1 2 -39 977. 1211. 305. o
2 2 39 664. 1137. 516. <
2 2 -39 654. 1179. 537. <
1 3 39 2968. 3105. 337. o
1 3 -39 2892. 2779. 358. o
2 3 39 246. 674. 326. <
2 3 -39 249. 1347. 441. o
3 3 39 743. 1474. 484. o
3 3 -39 737. 1716. 684. <
1 4 39 1368. 1947. 347. o
1 4 -39 1363. 1295. 390. o
2 4 39 678. 968. 358. <
2 4 -39 687. 1168. 473. <
0 0 40 20067. 27684. 1211. o
0 0 -40 20135. 25126. 1077. o
0 1 40 1353. 2600. 504. o
0 1 -40 1364. 1558. 442. o
1 1 40 1330. 1779. 505. o
1 1 -40 1309. 1558. 473. o
0 2 40 11910. 5916. 540. o
0 2 -40 11984. 4368. 502. o
1 2 40 149. 916. 336. <
1 2 -40 138. 1126. 336. o
2 2 40 9275. 13884. 497. o
2 2 -40 9246. 12463. 627. o
0 3 40 107. 832. 431. <
0 3 -40 109. 695. 516. <
1 3 40 2411. 2168. 337. o
1 3 -40 2427. 2484. 379. o
2 3 40 1063. 2242. 335. o
2 3 -40 1073. 1895. 420. o
3 3 40 388. 895. 410. <
3 3 -40 390. 884. 600. <
0 4 40 4013. 6137. 574. o
0 4 -40 3958. 6021. 574. o
1 4 40 259. 1200. 368. o
1 4 -40 265. 1042. 400. <
1 1 41 5002. 4105. 528. o
1 1 -41 5101. 3210. 436. o
1 2 41 1066. 1326. 358. o
1 2 -41 1065. 821. 358. <
2 2 41 66. 726. 431. <
2 2 -41 64. 1389. 568. <
1 3 41 4093. 3516. 359. o
1 3 -41 4168. 3379. 381. o
2 3 41 118. 705. 326. <
2 3 -41 116. 863. 452. <
0 0 42 912. 3453. 1104. o
0 0 -42 939. 3295. 935. o
0 1 42 118. 716. 452. <
0 1 -42 119. 1253. 484. <
1 1 42 1051. 1621. 505. o
1 1 -42 1070. 884. 474. <
0 2 42 739. 1200. 494. <
0 2 -42 742. 1421. 536. <
1 2 42 691. 811. 358. <
1 2 -42 684. 611. 358. <
2 2 42 115. 1032. 473. <
2 2 -42 113. 905. 600. <
0 3 42 1040. 1095. 484. <
0 3 -42 1024. 1168. 568. <
1 1 43 1040. 1042. 526. <
1 1 -43 1015. 853. 495. <

loop_
_twin_refln_datum_id
_twin_refln_individual_id
_twin_refln_index_h
_twin_refln_index_k
_twin_refln_index_l
_twin_refln_F_squared_calc
_twin_refln_F_squared_meas
_twin_refln_F_squared_sigma
_twin_refln_include_status
1 2 -2 0 0 30955. 15780. 934. o
1 1 2 0 0 30955. 15780. 934. o
2 2 -4 0 0 865404. 943225. 18162. o
2 1 4 0 0 865404. 943225. 18162. o
3 2 -6 0 0 54259. 75720. 1448. o
3 1 6 0 0 54259. 75720. 1448. o
4 2 8 0 0 91744. 66633. 1231. o
4 1 -8 0 0 91744. 66633. 1231. o
5 2 -10 0 0 11374. 12123. 534. o
5 1 10 0 0 11374. 12123. 534. o
6 2 -1 1 0 263. 1264. 590. o
6 1 1 1 0 263. 1264. 590. o
7 3 0 -2 0 31124. 16236. 1038. o
7 2 0 2 0 31124. 16236. 1038. o
7 1 0 2 0 31124. 16236. 1038. o
8 2 -1 3 0 5702. 3481. 329. o
8 1 1 3 0 5702. 3481. 329. o
9 2 -3 3 0 28227. 15977. 615. o
9 1 3 3 0 28227. 15977. 615. o
10 3 0 -4 0 870136. 1036120. 18936. o
10 2 0 4 0 870136. 1036120. 18936. o
10 1 0 4 0 870136. 1036120. 18936. o
11 2 -2 4 0 31547. 45320. 828. o
11 1 2 4 0 31547. 45320. 828. o
12 2 -4 4 0 414981. 500416. 8954. o
12 1 4 4 0 414981. 500416. 8954. o
13 2 -1 5 0 3272. 1430. 242. o
13 1 1 5 0 3272. 1430. 242. o
14 2 -3 5 0 18014. 12775. 328. o
14 1 3 5 0 18014. 12775. 328. o
15 2 -5 5 0 9999. 6269. 402. o
15 1 5 5 0 9999. 6269. 402. o
16 3 0 -6 0 54556. 87252. 1601. o
16 2 0 6 0 54556. 87252. 1601. o
16 1 0 6 0 54556. 87252. 1601. o
17 2 -2 6 0 255846. 252244. 934. o
17 1 2 6 0 255846. 252244. 934. o
18 2 -4 6 0 19198. 19904. 266. o
18 1 4 6 0 19198. 19904. 266. o
19 2 -6 6 0 134026. 138965. 387. o
19 1 6 6 0 134026. 138965. 387. o
20 2 -1 7 0 268. 767. 228. o
20 1 1 7 0 268. 767. 228. o
21 2 -3 7 0 809. 342. 249. <
21 1 3 7 0 809. 342. 249. <
22 2 -5 7 0 1626. 1948. 238. o
22 1 5 7 0 1626. 1948. 238. o
23 2 -7 7 0 205. 1005. 445. o
23 1 7 7 0 205. 1005. 445. o
24 3 0 -8 0 92245. 72062. 1232. o
24 2 0 8 0 92245. 72062. 1232. o
24 1 0 8 0 92245. 72062. 1232. o
25 2 -2 8 0 26210. 35094. 682. o
25 1 2 8 0 26210. 35094. 682. o
26 2 -4 8 0 84543. 81263. 570. o
26 1 4 8 0 84543. 81263. 570. o
27 2 -6 8 0 3203. 1855. 324. o
27 1 6 8 0 3203. 1855. 324. o
28 2 -1 9 0 213. 342. 259. <
28 1 1 9 0 213. 342. 259. <
29 2 -3 9 0 166. 901. 300. o
29 1 3 9 0 166. 901. 300. o
30 2 -5 9 0 78. 1233. 300. o
30 1 5 9 0 78. 1233. 300. o
31 3 0 -10 0 11436. 13843. 671. o
31 2 0 10 0 11436. 13843. 671. o
31 1 0 10 0 11436. 13843. 671. o
32 2 -2 10 0 33556. 24338. 516. o
32 1 2 10 0 33556. 24338. 516. o
33 2 1 1 -1 250903. 202552. 3098. o
33 1 -1 1 1 250903. 202552. 3098. o
34 2 -1 1 1 250867. 198521. 3154. o
34 1 1 1 -1 250867. 198521. 3154. o
35 3 1 -1 1 252273. 229108. 2892. o
35 2 -1 1 -1 252273. 229108. 2892. o
35 1 1 1 1 252273. 229108. 2892. o
36 2 -1 1 1 250867. 197993. 3234. o
36 1 1 1 -1 250867. 197993. 3234. o
37 2 1 2 -1 37767. 32638. 647. o
37 1 -1 2 1 37767. 32638. 647. o
38 2 -1 2 1 37754. 31726. 614. o
38 1 1 2 -1 37754. 31726. 614. o
39 3 1 -2 1 37973. 29913. 928. o
39 2 -1 2 -1 37973. 29913. 928. o
39 1 1 2 1 37973. 29913. 928. o
40 2 -1 2 1 37754. 29270. 931. o
40 1 1 2 -1 37754. 29270. 931. o
41 2 -2 2 -1 8555. 7242. 533. o
41 1 2 2 1 8555. 7242. 533. o
42 2 -2 2 1 8559. 13739. 529. o
42 1 2 2 -1 8559. 13739. 529. o
43 2 1 3 -1 150482. 144933. 1027. o
43 1 -1 3 1 150482. 144933. 1027. o
44 2 -1 3 1 150441. 141711. 1049. o
44 1 1 3 -1 150441. 141711. 1049. o
45 3 1 -3 1 151303. 142488. 1528. o
45 2 -1 3 -1 151303. 142488. 1528. o
45 1 1 3 1 151303. 142488. 1528. o
46 2 -1 3 1 150441. 147606. 1447. o
46 1 1 3 -1 150441. 147606. 1447. o
47 2 -2 3 -1 8073. 6051. 312. o
47 1 2 3 1 8073. 6051. 312. o
48 2 -2 3 1 8072. 6196. 332. o
48 1 2 3 -1 8072. 6196. 332. o
49 2 -3 3 -1 68490. 72145. 549. o
49 1 3 3 1 68490. 72145. 549. o
50 2 -3 3 1 68508. 69607. 577. o
50 1 3 3 -1 68508. 69607. 577. o
51 2 1 4 -1 21814. 22660. 359. o
51 1 -1 4 1 21814. 22660. 359. o
52 2 -1 4 1 21826. 23188. 339. o
52 1 1 4 -1 21826. 23188. 339. o
53 3 1 -4 1 21934. 22691. 614. o
53 2 -1 4 -1 21934. 22691. 614. o
53 1 1 4 1 21934. 22691. 614. o
54 2 -1 4 1 21826. 25271. 780. o
54 1 1 4 -1 21826. 25271. 780. o
55 2 -2 4 -1 6195. 2114. 313. o
55 1 2 4 1 6195. 2114. 313. o
56 2 -2 4 1 6194. 2010. 313. o
56 1 2 4 -1 6194. 2010. 313. o
57 2 -3 4 -1 4126. 5491. 273. o
57 1 3 4 1 4126. 5491. 273. o
58 2 -3 4 1 4127. 5388. 284. o
58 1 3 4 -1 4127. 5388. 284. o
59 2 -4 4 -1 8420. 4331. 419. o
59 1 4 4 1 8420. 4331. 419. o
60 2 -4 4 1 8414. 4321. 429. o
60 1 4 4 -1 8414. 4321. 429. o
61 2 1 5 -1 34274. 28980. 483. o
61 1 -1 5 1 34274. 28980. 483. o
62 2 -1 5 1 34221. 30244. 471. o
62 1 1 5 -1 34221. 30244. 471. o
63 3 1 -5 1 34459. 31736. 767. o
63 2 -1 5 -1 34459. 31736. 767. o
63 1 1 5 1 34459. 31736. 767. o
64 2 -1 5 1 34221. 31239. 730. o
64 1 1 5 -1 34221. 31239. 730. o
65 2 -2 5 -1 969. 901. 269. o
65 1 2 5 1 969. 901. 269. o
66 2 -2 5 1 970. 1088. 249. o
66 1 2 5 -1 970. 1088. 249. o
67 2 -3 5 -1 39103. 41093. 285. o
67 1 3 5 1 39103. 41093. 285. o
68 2 -3 5 1 39094. 41134. 296. o
68 1 3 5 -1 39094. 41134. 296. o
69 2 -4 5 -1 1280. 943. 239. o
69 1 4 5 1 1280. 943. 239. o
70 2 -4 5 1 1278. 1285. 259. o
70 1 4 5 -1 1278. 1285. 259. o
71 2 -5 5 -1 10163. 9170. 400. o
71 1 5 5 1 10163. 9170. 400. o
72 2 -5 5 1 10160. 9304. 409. o
72 1 5 5 -1 10160. 9304. 409. o
73 2 1 6 -1 4390. 4766. 268. o
73 1 -1 6 1 4390. 4766. 268. o
74 2 -1 6 1 4394. 5067. 329. o
74 1 1 6 -1 4394. 5067. 329. o
75 3 1 -6 1 4415. 5813. 556. o
75 2 -1 6 -1 4415. 5813. 556. o
75 1 1 6 1 4415. 5813. 556. o
76 2 -1 6 1 4394. 4994. 537. o
76 1 1 6 -1 4394. 4994. 537. o
77 2 -2 6 -1 1272. 1254. 259. o
77 1 2 6 1 1272. 1254. 259. o
78 2 -2 6 1 1273. 1078. 280. o
78 1 2 6 -1 1273. 1078. 280. o
79 2 -3 6 -1 1134. 1523. 238. o
79 1 3 6 1 1134. 1523. 238. o
80 2 -3 6 1 1135. 1761. 258. o
80 1 3 6 -1 1135. 1761. 258. o
81 2 -4 6 -1 1691. 829. 229. o
81 1 4 6 1 1691. 829. 229. o
82 2 -4 6 1 1688. 1264. 260. o
82 1 4 6 -1 1688. 1264. 260. o
83 2 -5 6 -1 170. 601. 238. o
83 1 5 6 1 170. 601. 238. o
84 2 -5 6 1 169. -41. 259. <
84 1 5 6 -1 169. -41. 259. <
85 2 -6 6 -1 1149. 901. 342. o
85 1 6 6 1 1149. 901. 342. o
86 2 -6 6 1 1146. 1212. 404. o
86 1 6 6 -1 1146. 1212. 404. o
87 2 1 7 -1 11435. 6952. 314. o
87 1 -1 7 1 11435. 6952. 314. o
88 2 -1 7 1 11405. 7325. 293. o
88 1 1 7 -1 11405. 7325. 293. o
89 3 1 -7 1 11496. 7139. 567. o
89 2 -1 7 -1 11496. 7139. 567. o
89 1 1 7 1 11496. 7139. 567. o
90 2 -1 7 1 11405. 7854. 575. o
90 1 1 7 -1 11405. 7854. 575. o
91 2 -2 7 -1 2777. 3616. 214. o
91 1 2 7 1 2777. 3616. 214. o
92 2 -2 7 1 2777. 3481. 236. o
92 1 2 7 -1 2777. 3481. 236. o
93 2 -3 7 -1 4659. 4310. 271. o
93 1 3 7 1 4659. 4310. 271. o
94 2 -3 7 1 4650. 3948. 252. o
94 1 3 7 -1 4650. 3948. 252. o
95 2 -4 7 -1 3951. 4859. 265. o
95 1 4 7 1 3951. 4859. 265. o
96 2 -4 7 1 3947. 4455. 267. o
96 1 4 7 -1 3947. 4455. 267. o
97 2 -5 7 -1 16133. 17086. 308. o
97 1 5 7 1 16133. 17086. 308. o
98 2 -5 7 1 16122. 16619. 293. o
98 1 5 7 -1 16122. 16619. 293. o
99 2 -6 7 -1 769. 1067. 259. o
99 1 6 7 1 769. 1067. 259. o
100 2 -6 7 1 767. 995. 259. o
100 1 6 7 -1 767. 995. 259. o
101 2 -7 7 -1 2480. 2331. 435. o
101 1 7 7 1 2480. 2331. 435. o
102 2 7 7 1 2481. 4144. 827. o
102 1 -7 7 -1 2481. 4144. 827. o
103 3 6 -7 14 2497. 3067. 652. o
103 2 -7 7 1 2497. 3067. 652. o
103 1 7 7 -1 2497. 3067. 652. o
104 2 7 7 1 2481. 2176. 1005. o
104 1 -7 7 -1 2481. 2176. 1005. o
105 3 6 -7 14 2497. 1502. 912. <
105 2 -7 7 1 2497. 1502. 912. <
105 1 7 7 -1 2497. 1502. 912. <
106 2 1 8 -1 57. -218. 280. <
106 1 -1 8 1 57. -218. 280. <
107 2 -1 8 1 57. 166. 280. <
107 1 1 8 -1 57. 166. 280. <
108 3 1 -8 1 57. -197. 549. <
108 2 -1 8 -1 57. -197. 549. <
108 1 1 8 1 57. -197. 549. <
109 2 -1 8 1 57. 591. 559. <
109 1 1 8 -1 57. 591. 559. <
110 2 -2 8 -1 253. 259. 228. <
110 1 2 8 1 253. 259. 228. <
111 2 -2 8 1 253. -197. 269. <
111 1 2 8 -1 253. -197. 269. <
112 2 -3 8 -1 134. 352. 249. <
112 1 3 8 1 134. 352. 249. <
113 2 -3 8 1 134. 207. 249. <
113 1 3 8 -1 134. 207. 249. <
114 2 -4 8 -1 54. 580. 269. o
114 1 4 8 1 54. 580. 269. o
115 2 -4 8 1 54. 394. 300. <
115 1 4 8 -1 54. 394. 300. <
116 2 -5 8 -1 155. 705. 279. o
116 1 5 8 1 155. 705. 279. o
117 2 -5 8 1 156. 580. 290. <
117 1 5 8 -1 156. 580. 290. <
118 2 -6 8 -1 5. 943. 321. o
118 1 6 8 1 5. 943. 321. o
119 2 -6 8 1 5. 1181. 300. o
119 1 6 8 -1 5. 1181. 300. o
120 2 -7 8 -1 33. 673. 300. o
120 1 7 8 1 33. 673. 300. o
121 3 6 -8 14 34. 881. 974. <
121 2 -7 8 1 34. 881. 974. <
121 1 7 8 -1 34. 881. 974. <
122 2 7 8 1 33. 839. 342. o
122 1 -7 8 -1 33. 839. 342. o
123 3 6 -8 14 34. 974. 673. <
123 2 -7 8 1 34. 974. 673. <
123 1 7 8 -1 34. 974. 673. <
124 2 1 9 -1 2707. 1554. 344. o
124 1 -1 9 1 2707. 1554. 344. o
125 2 -1 9 1 2700. 1057. 313. o
125 1 1 9 -1 2700. 1057. 313. o
126 3 1 -9 1 2722. 1046. 499. o
126 2 -1 9 -1 2722. 1046. 499. o
126 1 1 9 1 2722. 1046. 499. o
127 2 -1 9 1 2700. 1533. 654. o
127 1 1 9 -1 2700. 1533. 654. o
128 2 -2 9 -1 734. 1938. 278. o
128 1 2 9 1 734. 1938. 278. o
129 2 -2 9 1 734. 1533. 268. o
129 1 2 9 -1 734. 1533. 268. o
130 2 -3 9 -1 5640. 5067. 313. o
130 1 3 9 1 5640. 5067. 313. o
131 2 -3 9 1 5636. 5118. 293. o
131 1 3 9 -1 5636. 5118. 293. o
132 2 -4 9 -1 1036. 1637. 300. o
132 1 4 9 1 1036. 1637. 300. o
133 2 -4 9 1 1036. 1565. 321. o
133 1 4 9 -1 1036. 1565. 321. o
134 2 -5 9 -1 633. 1720. 310. o
134 1 5 9 1 633. 1720. 310. o
135 2 -5 9 1 634. 1772. 278. o
135 1 5 9 -1 634. 1772. 278. o
136 2 1 10 -1 609. 1803. 320. o
136 1 -1 10 1 609. 1803. 320. o
137 2 -1 10 1 607. 1658. 320. o
137 1 1 10 -1 607. 1658. 320. o
138 3 1 -10 1 612. 870. 653. <
138 2 -1 10 -1 612. 870. 653. <
138 1 1 10 1 612. 870. 653. <
139 2 -1 10 1 607. 1181. 590. <
139 1 1 10 -1 607. 1181. 590. <
140 2 -2 10 -1 450. 1212. 310. o
140 1 2 10 1 450. 1212. 310. o
141 2 -2 10 1 449. 964. 300. o
141 1 2 10 -1 449. 964. 300. o
142 2 -3 10 -1 24. 860. 300. o
142 1 3 10 1 24. 860. 300. o
143 2 -3 10 1 24. 725. 269. o
143 1 3 10 -1 24. 725. 269. o
144 2 0 1 -2 8970. 5305. 683. o
144 1 0 1 2 8970. 5305. 683. o
145 2 0 1 2 8958. 5004. 653. o
145 1 0 1 -2 8958. 5004. 653. o
146 2 -1 1 -2 277. 383. 580. <
146 1 1 1 2 277. 383. 580. <
147 2 -1 1 2 278. 528. 673. <
147 1 1 1 -2 278. 528. 673. <
148 2 2 2 -2 115004. 120760. 1110. o
148 1 -2 2 2 115004. 120760. 1110. o
149 2 -2 2 2 115016. 117579. 1123. o
149 1 2 2 -2 115016. 117579. 1123. o
150 2 0 2 -2 18683. 29074. 441. o
150 1 0 2 2 18683. 29074. 441. o
151 2 0 2 2 18670. 28742. 660. o
151 1 0 2 -2 18670. 28742. 660. o
152 2 -1 2 -2 8009. 6631. 380. o
152 1 1 2 2 8009. 6631. 380. o
153 2 -1 2 2 8001. 6704. 420. o
153 1 1 2 -2 8001. 6704. 420. o
154 3 2 -2 2 115633. 114502. 1241. o
154 2 -2 2 -2 115633. 114502. 1241. o
154 1 2 2 2 115633. 114502. 1241. o
155 2 -2 2 2 115016. 112440. 1324. o
155 1 2 2 -2 115016. 112440. 1324. o
156 2 2 3 -2 18964. 16350. 442. o
156 1 -2 3 2 18964. 16350. 442. o
157 2 -2 3 2 18964. 16557. 421. o
157 1 2 3 -2 18964. 16557. 421. o
158 2 0 3 -2 66884. 49817. 886. o
158 1 0 3 2 66884. 49817. 886. o
159 2 0 3 2 66874. 51309. 1059. o
159 1 0 3 -2 66874. 51309. 1059. o
160 2 -1 3 -2 2829. 684. 303. o
160 1 1 3 2 2829. 684. 303. o
161 2 -1 3 2 2833. 933. 283. o
161 1 1 3 -2 2833. 933. 283. o
162 3 2 -3 2 19068. 16184. 733. o
162 2 -2 3 -2 19068. 16184. 733. o
162 1 2 3 2 19068. 16184. 733. o
163 2 -2 3 2 18964. 15646. 725. o
163 1 2 3 -2 18964. 15646. 725. o
164 2 -3 3 -2 10013. 4072. 417. o
164 1 3 3 2 10013. 4072. 417. o
165 2 -3 3 2 10016. 3958. 418. o
165 1 3 3 -2 10016. 3958. 418. o
166 2 2 4 -2 136. 1098. 383. o
166 1 -2 4 2 136. 1098. 383. o
167 2 -2 4 2 134. 1098. 310. o
167 1 2 4 -2 134. 1098. 310. o
168 2 0 4 -2 105455. 116533. 2278. o
168 1 0 4 2 105455. 116533. 2278. o
169 2 0 4 2 105513. 124262. 2434. o
169 1 0 4 -2 105513. 124262. 2434. o
170 2 -1 4 -2 116. 249. 300. <
170 1 1 4 2 116. 249. 300. <
171 2 -1 4 2 117. 352. 249. <
171 1 1 4 -2 117. 352. 249. <
172 3 2 -4 2 137. 1347. 538. o
172 2 -2 4 -2 137. 1347. 538. o
172 1 2 4 2 137. 1347. 538. o
173 2 -2 4 2 134. 477. 570. <
173 1 2 4 -2 134. 477. 570. <
174 2 -3 4 -2 1526. 1140. 260. o
174 1 3 4 2 1526. 1140. 260. o
175 2 -3 4 2 1525. 1212. 280. o
175 1 3 4 -2 1525. 1212. 280. o
176 2 -4 4 -2 52496. 59007. 305. o
176 1 4 4 2 52496. 59007. 305. o
177 2 -4 4 2 52508. 59971. 290. o
177 1 4 4 -2 52508. 59971. 290. o
178 2 2 5 -2 15381. 15449. 362. o
178 1 -2 5 2 15381. 15449. 362. o
179 2 -2 5 2 15392. 15335. 301. o
179 1 2 5 -2 15392. 15335. 301. o
180 2 0 5 -2 24092. 24701. 468. o
180 1 0 5 2 24092. 24701. 468. o
181 2 0 5 2 24109. 25167. 462. o
181 1 0 5 -2 24109. 25167. 462. o
182 2 -1 5 -2 934. 850. 238. o
182 1 1 5 2 934. 850. 238. o
183 2 -1 5 2 934. 943. 249. o
183 1 1 5 -2 934. 943. 249. o
184 3 2 -5 2 15465. 15697. 610. o
184 2 -2 5 -2 15465. 15697. 610. o
184 1 2 5 2 15465. 15697. 610. o
185 2 -2 5 2 15392. 15397. 591. o
185 1 2 5 -2 15392. 15397. 591. o
186 2 -3 5 -2 6924. 2000. 277. o
186 1 3 5 2 6924. 2000. 277. o
187 2 -3 5 2 6920. 2601. 286. o
187 1 3 5 -2 6920. 2601. 286. o
188 2 -4 5 -2 248. 705. 248. o
188 1 4 5 2 248. 705. 248. o
189 2 -4 5 2 248. 611. 217. o
189 1 4 5 -2 248. 611. 217. o
190 2 -5 5 -2 3180. 2404. 354. o
190 1 5 5 2 3180. 2404. 354. o
191 2 -5 5 2 3174. 2331. 344. o
191 1 5 5 -2 3174. 2331. 344. o
192 2 2 6 -2 49191. 55971. 1113. o
192 1 -2 6 2 49191. 55971. 1113. o
193 2 -2 6 2 49222. 57484. 1135. o
193 1 2 6 -2 49222. 57484. 1135. o
194 2 0 6 -2 2935. 1223. 375. o
194 1 0 6 2 2935. 1223. 375. o
195 2 0 6 2 2944. 1409. 334. o
195 1 0 6 -2 2944. 1409. 334. o
196 2 -1 6 -2 329. 725. 217. o
196 1 1 6 2 329. 725. 217. o
197 2 -1 6 2 330. 435. 290. <
197 1 1 6 -2 330. 435. 290. <
198 3 2 -6 2 49462. 59100. 534. o
198 2 -2 6 -2 49462. 59100. 534. o
198 1 2 6 2 49462. 59100. 534. o
199 2 -2 6 2 49222. 56852. 619. o
199 1 2 6 -2 49222. 56852. 619. o
200 2 -3 6 -2 3284. 2279. 272. o
200 1 3 6 2 3284. 2279. 272. o
201 2 -3 6 2 3281. 2559. 230. o
201 1 3 6 -2 3281. 2559. 230. o
202 2 -4 6 -2 1597. 1948. 269. o
202 1 4 6 2 1597. 1948. 269. o
203 2 -4 6 2 1594. 2052. 237. o
203 1 4 6 -2 1594. 2052. 237. o
204 2 -5 6 -2 1140. 746. 249. o
204 1 5 6 2 1140. 746. 249. o
205 2 -5 6 2 1135. 694. 249. o
205 1 5 6 -2 1135. 694. 249. o
206 2 -6 6 -2 6861. 6383. 386. o
206 1 6 6 2 6861. 6383. 386. o
207 2 6 6 2 6869. 5844. 583. o
207 1 -6 6 -2 6869. 5844. 583. o
208 3 5 -6 13 6869. 6548. 602. o
208 2 -6 6 2 6869. 6548. 602. o
208 1 6 6 -2 6869. 6548. 602. o
209 2 6 6 2 6869. 6724. 871. o
209 1 -6 6 -2 6869. 6724. 871. o
210 2 2 7 -2 1367. 1730. 248. o
210 1 -2 7 2 1367. 1730. 248. o
211 2 -2 7 2 1368. 1875. 300. o
211 1 2 7 -2 1368. 1875. 300. o
212 2 0 7 -2 3721. 2901. 344. o
212 1 0 7 2 3721. 2901. 344. o
213 2 0 7 2 3723. 3430. 353. o
213 1 0 7 -2 3723. 3430. 353. o
214 2 -1 7 -2 200. 425. 217. <
214 1 1 7 2 200. 425. 217. <
215 2 -1 7 2 201. 300. 238. <
215 1 1 7 -2 201. 300. 238. <
216 3 2 -7 2 1374. 1761. 528. o
216 2 -2 7 -2 1374. 1761. 528. o
216 1 2 7 2 1374. 1761. 528. o
217 2 -2 7 2 1368. 2166. 476. o
217 1 2 7 -2 1368. 2166. 476. o
218 2 -3 7 -2 187. 591. 248. o
218 1 3 7 2 187. 591. 248. o
219 2 -3 7 2 186. -187. 249. <
219 1 3 7 -2 186. -187. 249. <
220 2 -4 7 -2 671. 83. 270. <
220 1 4 7 2 671. 83. 270. <
221 2 -4 7 2 671. 705. 249. o
221 1 4 7 -2 671. 705. 249. o
222 2 -5 7 -2 511. 560. 269. o
222 1 5 7 2 511. 560. 269. o
223 2 -5 7 2 509. 497. 259. <
223 1 5 7 -2 509. 497. 259. <
224 2 -6 7 -2 14. 207. 269. <
224 1 6 7 2 14. 207. 269. <
225 2 6 7 2 15. 104. 819. <
225 1 -6 7 -2 15. 104. 819. <
226 3 5 -7 13 17. 10. 819. <
226 2 -6 7 2 17. 10. 819. <
226 1 6 7 -2 17. 10. 819. <
227 2 6 7 2 15. 1357. 580. o
227 1 -6 7 -2 15. 1357. 580. o
228 3 5 -7 13 17. 1523. 901. <
228 2 -6 7 2 17. 1523. 901. <
228 1 6 7 -2 17. 1523. 901. <
229 2 6 7 2 15. 466. 383. <
229 1 -6 7 -2 15. 466. 383. <
230 2 -7 7 -2 69. 746. 456. <
230 1 7 7 2 69. 746. 456. <
231 2 -7 7 2 69. 819. 414. <
231 1 7 7 -2 69. 819. 414. <
232 2 2 8 -2 557. 570. 259. o
232 1 -2 8 2 557. 570. 259. o
233 2 -2 8 2 557. 414. 332. <
233 1 2 8 -2 557. 414. 332. <
234 2 0 8 -2 28352. 35083. 300. o
234 1 0 8 2 28352. 35083. 300. o
235 2 0 8 2 28371. 35042. 347. o
235 1 0 8 -2 28371. 35042. 347. o
236 2 -1 8 -2 704. 1181. 269. o
236 1 1 8 2 704. 1181. 269. o
237 2 -1 8 2 705. 1036. 248. o
237 1 1 8 -2 705. 1036. 248. o
238 3 2 -8 2 560. 870. 508. <
238 2 -2 8 -2 560. 870. 508. <
238 1 2 8 2 560. 870. 508. <
239 2 -2 8 2 557. 508. 528. <
239 1 2 8 -2 557. 508. 528. <
240 2 -3 8 -2 1817. 1730. 259. o
240 1 3 8 2 1817. 1730. 259. o
241 2 -3 8 2 1815. 2114. 300. o
241 1 3 8 -2 1815. 2114. 300. o
242 2 -4 8 -2 8406. 7781. 295. o
242 1 4 8 2 8406. 7781. 295. o
243 2 -4 8 2 8412. 8486. 290. o
243 1 4 8 -2 8412. 8486. 290. o
244 2 -5 8 -2 1192. 1533. 310. o
244 1 5 8 2 1192. 1533. 310. o
245 2 -5 8 2 1189. 2010. 268. o
245 1 5 8 -2 1189. 2010. 268. o
246 2 -6 8 -2 2549. 2476. 321. o
246 1 6 8 2 2549. 2476. 321. o
247 3 5 -8 13 2547. 3015. 901. o
247 2 -6 8 2 2547. 3015. 901. o
247 1 6 8 -2 2547. 3015. 901. o
248 2 6 8 2 2545. 2912. 393. o
248 1 -6 8 -2 2545. 2912. 393. o
249 3 5 -8 13 2547. 2829. 694. o
249 2 -6 8 2 2547. 2829. 694. o
249 1 6 8 -2 2547. 2829. 694. o
250 2 6 8 2 2545. 2362. 518. o
250 1 -6 8 -2 2545. 2362. 518. o
251 2 -7 8 -2 84. 1088. 321. o
251 1 7 8 2 84. 1088. 321. o
252 2 -7 8 2 84. 1015. 290. o
252 1 7 8 -2 84. 1015. 290. o
253 2 2 9 -2 164. -21. 300. <
253 1 -2 9 2 164. -21. 300. <
254 2 -2 9 2 163. 477. 300. <
254 1 2 9 -2 163. 477. 300. <
255 2 0 9 -2 154. 394. 373. <
255 1 0 9 2 154. 394. 373. <
256 2 0 9 2 153. 808. 393. o
256 1 0 9 -2 153. 808. 393. o
257 2 -1 9 -2 488. 114. 290. <
257 1 1 9 2 488. 114. 290. <
258 2 -1 9 2 487. 611. 259. o
258 1 1 9 -2 487. 611. 259. o
259 3 2 -9 2 165. 446. 611. <
259 2 -2 9 -2 165. 446. 611. <
259 1 2 9 2 165. 446. 611. <
260 2 -2 9 2 163. 787. 590. <
260 1 2 9 -2 163. 787. 590. <
261 2 -3 9 -2 314. 725. 269. o
261 1 3 9 2 314. 725. 269. o
262 2 -3 9 2 313. 383. 321. <
262 1 3 9 -2 313. 383. 321. <
263 2 -4 9 -2 346. 1254. 300. o
263 1 4 9 2 346. 1254. 300. o
264 2 -4 9 2 346. 1057. 331. o
264 1 4 9 -2 346. 1057. 331. o
265 2 -5 9 -2 674. 705. 300. o
265 1 5 9 2 674. 705. 300. o
266 2 -5 9 2 675. 767. 280. o
266 1 5 9 -2 675. 767. 280. o
267 2 2 10 -2 6170. 6269. 352. o
267 1 -2 10 2 6170. 6269. 352. o
268 2 -2 10 2 6171. 6548. 350. o
268 1 2 10 -2 6171. 6548. 350. o
269 2 0 10 -2 143. 518. 394. <
269 1 0 10 2 143. 518. 394. <
270 2 0 10 2 142. 746. 435. <
270 1 0 10 -2 142. 746. 435. <
271 2 -1 10 -2 52. 570. 290. <
271 1 1 10 2 52. 570. 290. <
272 2 -1 10 2 52. 560. 311. <
272 1 1 10 -2 52. 560. 311. <
273 3 2 -10 2 6204. 6652. 683. o
273 2 -2 10 -2 6204. 6652. 683. o
273 1 2 10 2 6204. 6652. 683. o
274 2 -2 10 2 6171. 5730. 737. o
274 1 2 10 -2 6171. 5730. 737. o
275 2 -3 10 -2 260. 1306. 310. o
275 1 3 10 2 260. 1306. 310. o
276 2 -3 10 2 260. 1171. 310. o
276 1 3 10 -2 260. 1171. 310. o
277 2 -1 1 -3 19271. 31084. 694. o
277 1 1 1 3 19271. 31084. 694. o
278 2 -1 1 3 19284. 29623. 678. o
278 1 1 1 -3 19284. 29623. 678. o
279 2 -1 2 -3 2388. 1264. 374. o
279 1 1 2 3 2388. 1264. 374. o
280 2 -1 2 3 2380. 1357. 343. o
280 1 1 2 -3 2380. 1357. 343. o
281 2 -2 2 -3 16352. 6465. 519. o
281 1 2 2 3 16352. 6465. 519. o
282 2 -2 2 3 16331. 6818. 546. o
282 1 2 2 -3 16331. 6818. 546. o
283 2 3 3 -3 41. -10. 528. <
283 1 -3 3 3 41. -10. 528. <
284 2 -3 3 3 41. 1129. 632. <
284 1 3 3 -3 41. 1129. 632. <
285 2 -1 3 -3 1393. 1896. 310. o
285 1 1 3 3 1393. 1896. 310. o
286 2 -1 3 3 1392. 1741. 279. o
286 1 1 3 -3 1392. 1741. 279. o
287 2 -2 3 -3 575. 715. 311. o
287 1 2 3 3 575. 715. 311. o
288 2 -2 3 3 576. 497. 321. <
288 1 2 3 -3 576. 497. 321. <
289 3 3 -3 3 41. 570. 611. <
289 2 -3 3 -3 41. 570. 611. <
289 1 3 3 3 41. 570. 611. <
290 2 -3 3 3 41. -187. 611. <
290 1 3 3 -3 41. -187. 611. <
291 2 3 4 -3 100. 62. 311. <
291 1 -3 4 3 100. 62. 311. <
292 2 -3 4 3 101. 155. 269. <
292 1 3 4 -3 101. 155. 269. <
293 2 -1 4 -3 2202. 31. 292. <
293 1 1 4 3 2202. 31. 292. <
294 2 -1 4 3 2216. 83. 281. <
294 1 1 4 -3 2216. 83. 281. <
295 2 -2 4 -3 13388. 7242. 366. o
295 1 2 4 3 13388. 7242. 366. o
296 2 -2 4 3 13383. 6807. 349. o
296 1 2 4 -3 13383. 6807. 349. o
297 3 3 -4 3 101. 124. 466. <
297 2 -3 4 -3 101. 124. 466. <
297 1 3 4 3 101. 124. 466. <
298 2 -3 4 3 101. -528. 590. <
298 1 3 4 -3 101. -528. 590. <
299 2 -4 4 -3 14356. 8817. 451. o
299 1 4 4 3 14356. 8817. 451. o
300 2 -4 4 3 14351. 8444. 424. o
300 1 4 4 -3 14351. 8444. 424. o
301 2 3 5 -3 172. 508. 290. <
301 1 -3 5 3 172. 508. 290. <
302 2 -3 5 3 172. 528. 290. <
302 1 3 5 -3 172. 528. 290. <
303 2 -1 5 -3 5226. 9253. 236. o
303 1 1 5 3 5226. 9253. 236. o
304 2 -1 5 3 5234. 9760. 300. o
304 1 1 5 -3 5234. 9760. 300. o
305 2 -2 5 -3 1972. 518. 291. <
305 1 2 5 3 1972. 518. 291. <
306 2 -2 5 3 1974. 363. 240. <
306 1 2 5 -3 1974. 363. 240. <
307 3 3 -5 3 173. 829. 528. <
307 2 -3 5 -3 173. 829. 528. <
307 1 3 5 3 173. 829. 528. <
308 2 -3 5 3 172. 642. 518. <
308 1 3 5 -3 172. 642. 518. <
309 2 -4 5 -3 1935. 124. 250. <
309 1 4 5 3 1935. 124. 250. <
310 2 -4 5 3 1931. 539. 240. o
310 1 4 5 -3 1931. 539. 240. o
311 2 -5 5 -3 189. 290. 394. <
311 1 5 5 3 189. 290. 394. <
312 2 5 5 3 188. 1067. 559. <
312 1 -5 5 -3 188. 1067. 559. <
313 3 4 -5 12 196. 1015. 528. <
313 2 -5 5 3 196. 1015. 528. <
313 1 5 5 -3 196. 1015. 528. <
314 2 5 5 3 188. -1461. 860. <
314 1 -5 5 -3 188. -1461. 860. <
315 2 3 6 -3 435. 497. 321. <
315 1 -3 6 3 435. 497. 321. <
316 2 -3 6 3 435. 145. 269. <
316 1 3 6 -3 435. 145. 269. <
317 2 -1 6 -3 1072. 249. 239. <
317 1 1 6 3 1072. 249. 239. <
318 2 -1 6 3 1078. 259. 270. <
318 1 1 6 -3 1078. 259. 270. <
319 2 -2 6 -3 2636. 2072. 250. o
319 1 2 6 3 2636. 2072. 250. o
320 2 -2 6 3 2637. 2186. 270. o
320 1 2 6 -3 2637. 2186. 270. o
321 3 3 -6 3 438. -145. 456. <
321 2 -3 6 -3 438. -145. 456. <
321 1 3 6 3 438. -145. 456. <
322 2 -3 6 3 435. 207. 477. <
322 1 3 6 -3 435. 207. 477. <
323 2 -4 6 -3 2403. 1647. 261. o
323 1 4 6 3 2403. 1647. 261. o
324 2 -4 6 3 2400. 1471. 261. o
324 1 4 6 -3 2400. 1471. 261. o
325 2 -5 6 -3 180. 228. 238. <
325 1 5 6 3 180. 228. 238. <
326 3 4 -6 12 184. -269. 383. <
326 2 -5 6 3 184. -269. 383. <
326 1 5 6 -3 184. -269. 383. <
327 2 5 6 3 179. 10. 280. <
327 1 -5 6 -3 179. 10. 280. <
328 2 -6 6 -3 735. 1316. 373. o
328 1 6 6 3 735. 1316. 373. o
329 2 -6 6 3 734. 1036. 352. o
329 1 6 6 -3 734. 1036. 352. o
330 2 3 7 -3 737. 1658. 279. o
330 1 -3 7 3 737. 1658. 279. o
331 2 -3 7 3 738. 1689. 279. o
331 1 3 7 -3 738. 1689. 279. o
332 2 -1 7 -3 4559. 10734. 196. o
332 1 1 7 3 4559. 10734. 196. o
333 2 -1 7 3 4566. 10786. 209. o
333 1 1 7 -3 4566. 10786. 209. o
334 2 -2 7 -3 2645. 539. 221. o
334 1 2 7 3 2645. 539. 221. o
335 2 -2 7 3 2644. 746. 251. o
335 1 2 7 -3 2644. 746. 251. o
336 3 3 -7 3 741. 1979. 486. o
336 2 -3 7 -3 741. 1979. 486. o
336 1 3 7 3 741. 1979. 486. o
337 2 -3 7 3 738. 1875. 538. o
337 1 3 7 -3 738. 1875. 538. o
338 2 -4 7 -3 2610. 632. 282. o
338 1 4 7 3 2610. 632. 282. o
339 2 -4 7 3 2605. 736. 231. o
339 1 4 7 -3 2605. 736. 231. o
340 2 -5 7 -3 1867. 3108. 277. o
340 1 5 7 3 1867. 3108. 277. o
341 2 5 7 3 1863. 2632. 340. o
341 1 -5 7 -3 1863. 2632. 340. o
342 3 4 -7 12 1870. 4051. 639. o
342 2 -5 7 3 1870. 4051. 639. o
342 1 5 7 -3 1870. 4051. 639. o
343 2 5 7 3 1863. 3430. 879. o
343 1 -5 7 -3 1863. 3430. 879. o
344 3 4 -7 12 1870. 2435. 880. o
344 2 -5 7 3 1870. 2435. 880. o
344 1 5 7 -3 1870. 2435. 880. o
345 2 5 7 3 1863. 3067. 516. o
345 1 -5 7 -3 1863. 3067. 516. o
346 2 -6 7 -3 863. 756. 280. o
346 1 6 7 3 863. 756. 280. o
347 2 -6 7 3 860. 787. 269. o
347 1 6 7 -3 860. 787. 269. o
348 2 -7 7 -3 1199. 3917. 430. o
348 1 7 7 3 1199. 3917. 430. o
349 2 -7 7 3 1197. 3834. 441. o
349 1 7 7 -3 1197. 3834. 441. o
350 2 3 8 -3 55. -259. 290. <
350 1 -3 8 3 55. -259. 290. <
351 2 -3 8 3 55. 135. 332. <
351 1 3 8 -3 55. 135. 332. <
352 2 -1 8 -3 362. 497. 249. <
352 1 1 8 3 362. 497. 249. <
353 2 -1 8 3 361. 404. 238. <
353 1 1 8 -3 361. 404. 238. <
354 2 -2 8 -3 29. 342. 238. <
354 1 2 8 3 29. 342. 238. <
355 2 -2 8 3 28. 259. 269. <
355 1 2 8 -3 28. 259. 269. <
356 3 3 -8 3 55. 135. 549. <
356 2 -3 8 -3 55. 135. 549. <
356 1 3 8 3 55. 135. 549. <
357 2 -3 8 3 55. 300. 477. <
357 1 3 8 -3 55. 300. 477. <
358 2 -4 8 -3 31. 580. 269. o
358 1 4 8 3 31. 580. 269. o
359 2 -4 8 3 31. 487. 280. <
359 1 4 8 -3 31. 487. 280. <
360 2 -5 8 -3 353. 591. 290. o
360 1 5 8 3 353. 591. 290. o
361 2 5 8 3 353. 290. 414. <
361 1 -5 8 -3 353. 290. 414. <
362 3 4 -8 12 388. 363. 528. <
362 2 -5 8 3 388. 363. 528. <
362 1 5 8 -3 388. 363. 528. <
363 2 5 8 3 353. 601. 414. <
363 1 -5 8 -3 353. 601. 414. <
364 2 -6 8 -3 37. 767. 311. o
364 1 6 8 3 37. 767. 311. o
365 2 -6 8 3 37. 1026. 279. o
365 1 6 8 -3 37. 1026. 279. o
366 2 -7 8 -3 119. 1109. 321. o
366 1 7 8 3 119. 1109. 321. o
367 2 -7 8 3 119. 777. 279. o
367 1 7 8 -3 119. 777. 279. o
368 2 3 9 -3 15. 269. 300. <
368 1 -3 9 3 15. 269. 300. <
369 2 -3 9 3 15. 611. 383. <
369 1 3 9 -3 15. 611. 383. <
370 2 -1 9 -3 893. 2642. 287. o
370 1 1 9 3 893. 2642. 287. o
371 2 -1 9 3 893. 2476. 277. o
371 1 1 9 -3 893. 2476. 277. o
372 2 -2 9 -3 648. 187. 290. <
372 1 2 9 3 648. 187. 290. <
373 2 -2 9 3 648. 756. 290. o
373 1 2 9 -3 648. 756. 290. o
374 3 3 -9 3 15. 850. 528. <
374 2 -3 9 -3 15. 850. 528. <
374 1 3 9 3 15. 850. 528. <
375 2 -3 9 3 15. 1015. 621. <
375 1 3 9 -3 15. 1015. 621. <
376 2 -4 9 -3 1125. 1171. 290. o
376 1 4 9 3 1125. 1171. 290. o
377 2 -4 9 3 1125. 632. 301. o
377 1 4 9 -3 1125. 632. 301. o
378 2 -5 9 -3 132. 1368. 299. o
378 1 5 9 3 132. 1368. 299. o
379 2 5 9 3 132. 1751. 455. o
379 1 -5 9 -3 132. 1751. 455. o
380 3 4 -9 12 133. 819. 974. <
380 2 -5 9 3 133. 819. 974. <
380 1 5 9 -3 133. 819. 974. <
381 2 5 9 3 132. 2000. 818. o
381 1 -5 9 -3 132. 2000. 818. o
382 3 4 -9 12 133. 901. 787. <
382 2 -5 9 3 133. 901. 787. <
382 1 5 9 -3 133. 901. 787. <
383 2 5 9 3 132. 1627. 683. o
383 1 -5 9 -3 132. 1627. 683. o
384 2 3 10 -3 228. 964. 331. o
384 1 -3 10 3 228. 964. 331. o
385 2 -3 10 3 228. 901. 342. o
385 1 3 10 -3 228. 901. 342. o
386 2 -1 10 -3 752. 1243. 300. o
386 1 1 10 3 752. 1243. 300. o
387 2 -1 10 3 749. 984. 280. o
387 1 1 10 -3 749. 984. 280. o
388 2 -2 10 -3 414. 1399. 300. o
388 1 2 10 3 414. 1399. 300. o
389 2 -2 10 3 414. 1171. 269. o
389 1 2 10 -3 414. 1171. 269. o
390 3 3 -10 3 229. 1616. 652. o
390 2 -3 10 -3 229. 1616. 652. o
390 1 3 10 3 229. 1616. 652. o
391 2 -3 10 3 228. 1109. 684. <
391 1 3 10 -3 228. 1109. 684. <
392 2 0 0 -4 487215. 657265. 12734. o
392 1 0 0 4 487215. 657265. 12734. o
393 2 0 0 4 487101. 667750. 12847. o
393 1 0 0 -4 487101. 667750. 12847. o
394 2 0 1 -4 571. 93. 560. <
394 1 0 1 4 571. 93. 560. <
395 2 0 1 4 569. 124. 674. <
395 1 0 1 -4 569. 124. 674. <
396 2 -1 1 -4 37. 218. 549. <
396 1 1 1 4 37. 218. 549. <
397 2 -1 1 4 37. 31. 497. <
397 1 1 1 -4 37. 31. 497. <
398 2 0 2 -4 165603. 214643. 3863. o
398 1 0 2 4 165603. 214643. 3863. o
399 2 0 2 4 165559. 206665. 3805. o
399 1 0 2 -4 165559. 206665. 3805. o
400 2 -1 2 -4 26300. 25893. 472. o
400 1 1 2 4 26300. 25893. 472. o
401 2 -1 2 4 26290. 25831. 453. o
401 1 1 2 -4 26290. 25831. 453. o
402 2 -2 2 -4 413536. 490884. 8938. o
402 1 2 2 4 413536. 490884. 8938. o
403 2 -2 2 4 413547. 489475. 8928. o
403 1 2 2 -4 413547. 489475. 8928. o
404 2 0 3 -4 120711. 104648. 1199. o
404 1 0 3 4 120711. 104648. 1199. o
405 2 0 3 4 120707. 100473. 1410. o
405 1 0 3 -4 120707. 100473. 1410. o
406 2 -1 3 -4 3369. 1440. 304. o
406 1 1 3 4 3369. 1440. 304. o
407 2 -1 3 4 3378. 1192. 294. o
407 1 1 3 -4 3378. 1192. 294. o
408 2 -2 3 -4 6669. 4155. 321. o
408 1 2 3 4 6669. 4155. 321. o
409 2 -2 3 4 6669. 4362. 321. o
409 1 2 3 -4 6669. 4362. 321. o
410 2 -3 3 -4 4741. 10. 368. <
410 1 3 3 4 4741. 10. 368. <
411 2 -3 3 4 4751. 373. 409. <
411 1 3 3 -4 4751. 373. 409. <
412 3 -3 -4 -11 170379. 191123. 3728. o
412 2 4 4 -4 170379. 191123. 3728. o
412 1 -4 4 4 170379. 191123. 3728. o
413 3 3 -4 11 170387. 187756. 3694. o
413 2 -4 4 4 170387. 187756. 3694. o
413 1 4 4 -4 170387. 187756. 3694. o
414 2 0 4 -4 288196. 341454. 6206. o
414 1 0 4 4 288196. 341454. 6206. o
415 2 0 4 4 288307. 338709. 6256. o
415 1 0 4 -4 288307. 338709. 6256. o
416 2 -1 4 -4 5616. 6175. 297. o
416 1 1 4 4 5616. 6175. 297. o
417 2 -1 4 4 5618. 5937. 288. o
417 1 1 4 -4 5618. 5937. 288. o
418 2 -2 4 -4 68406. 83947. 1553. o
418 1 2 4 4 68406. 83947. 1553. o
419 2 -2 4 4 68381. 80155. 1507. o
419 1 2 4 -4 68381. 80155. 1507. o
420 2 -3 4 -4 3846. 4196. 278. o
420 1 3 4 4 3846. 4196. 278. o
421 2 -3 4 4 3844. 4455. 277. o
421 1 3 4 -4 3844. 4455. 277. o
422 3 4 -4 4 171310. 190864. 3751. o
422 2 -4 4 -4 171310. 190864. 3751. o
422 1 4 4 4 171310. 190864. 3751. o
423 3 -4 -4 -4 171317. 176991. 850. o
423 2 4 4 4 171317. 176991. 850. o
423 1 -4 4 -4 171317. 176991. 850. o
424 2 -5 4 -4 2288. 2673. 310. o
424 1 5 4 4 2288. 2673. 310. o
425 2 -5 4 4 2288. 2279. 321. o
425 1 5 4 -4 2288. 2279. 321. o
426 2 -6 4 -4 21049. 21986. 423. o
426 1 6 4 4 21049. 21986. 423. o
427 2 -6 4 4 21037. 21541. 355. o
427 1 6 4 -4 21037. 21541. 355. o
428 2 -7 4 -4 732. 860. 394. o
428 1 7 4 4 732. 860. 394. o
429 2 -7 4 4 730. 1264. 310. o
429 1 7 4 -4 730. 1264. 310. o
430 2 -8 4 -4 42763. 39766. 532. o
430 1 8 4 4 42763. 39766. 532. o
431 2 -8 4 4 42779. 39932. 538. o
431 1 8 4 -4 42779. 39932. 538. o
432 2 -9 4 -4 742. 1109. 352. o
432 1 9 4 4 742. 1109. 352. o
433 2 -9 4 4 744. 1295. 445. o
433 1 9 4 -4 744. 1295. 445. o
434 3 -3 -5 -11 2456. 1969. 519. o
434 2 4 5 -4 2456. 1969. 519. o
434 1 -4 5 4 2456. 1969. 519. o
435 3 3 -5 11 2457. 2425. 456. o
435 2 -4 5 4 2457. 2425. 456. o
435 1 4 5 -4 2457. 2425. 456. o
436 2 0 5 -4 11371. 10071. 342. o
436 1 0 5 4 11371. 10071. 342. o
437 2 0 5 4 11375. 10807. 521. o
437 1 0 5 -4 11375. 10807. 521. o
438 2 -1 5 -4 715. 135. 239. <
438 1 1 5 4 715. 135. 239. <
439 2 -1 5 4 715. -31. 270. <
439 1 1 5 -4 715. -31. 270. <
440 2 -2 5 -4 25443. 27136. 269. o
440 1 2 5 4 25443. 27136. 269. o
441 2 -2 5 4 25445. 26172. 261. o
441 1 2 5 -4 25445. 26172. 261. o
442 2 -3 5 -4 3498. 1399. 253. o
442 1 3 5 4 3498. 1399. 253. o
443 2 -3 5 4 3499. 953. 223. o
443 1 3 5 -4 3499. 953. 223. o
444 3 4 -5 4 2300. 2114. 549. o
444 2 -4 5 -4 2300. 2114. 549. o
444 1 4 5 4 2300. 2114. 549. o
445 3 -4 -5 -4 2300. 2052. 560. o
445 2 4 5 4 2300. 2052. 560. o
445 1 -4 5 -4 2300. 2052. 560. o
446 2 -5 5 -4 2154. 352. 364. <
446 1 5 5 4 2154. 352. 364. <
447 2 -5 5 4 2152. 104. 333. <
447 1 5 5 -4 2152. 104. 333. <
448 3 -3 -6 -11 21050. 23220. 568. o
448 2 4 6 -4 21050. 23220. 568. o
448 1 -4 6 4 21050. 23220. 568. o
449 3 3 -6 11 21039. 23945. 571. o
449 2 -4 6 4 21039. 23945. 571. o
449 1 4 6 -4 21039. 23945. 571. o
450 2 0 6 -4 51769. 55298. 408. o
450 1 0 6 4 51769. 55298. 408. o
451 2 0 6 4 51690. 55174. 461. o
451 1 0 6 -4 51690. 55174. 461. o
452 2 -1 6 -4 290. 414. 218. <
452 1 1 6 4 290. 414. 218. <
453 2 -1 6 4 290. 850. 290. o
453 1 1 6 -4 290. 850. 290. o
454 2 -2 6 -4 122521. 125195. 265. o
454 1 2 6 4 122521. 125195. 265. o
455 2 -2 6 4 122562. 123382. 475. o
455 1 2 6 -4 122562. 123382. 475. o
456 2 -3 6 -4 11267. 12941. 259. o
456 1 3 6 4 11267. 12941. 259. o
457 2 -3 6 4 11271. 12589. 242. o
457 1 3 6 -4 11271. 12589. 242. o
458 3 4 -6 4 21163. 23168. 645. o
458 2 -4 6 -4 21163. 23168. 645. o
458 1 4 6 4 21163. 23168. 645. o
459 3 -4 -6 -4 21153. 21396. 599. o
459 2 4 6 4 21153. 21396. 599. o
459 1 -4 6 -4 21153. 21396. 599. o
460 2 -5 6 -4 155. 477. 238. <
460 1 5 6 4 155. 477. 238. <
461 2 -5 6 4 155. 373. 238. <
461 1 5 6 -4 155. 373. 238. <
462 2 -6 6 -4 57697. 64260. 346. o
462 1 6 6 4 57697. 64260. 346. o
463 2 -6 6 4 57736. 62416. 430. o
463 1 6 6 -4 57736. 62416. 430. o
464 3 -3 -7 -11 756. 1430. 580. o
464 2 4 7 -4 756. 1430. 580. o
464 1 -4 7 4 756. 1430. 580. o
465 3 3 -7 11 754. 1720. 517. o
465 2 -4 7 4 754. 1720. 517. o
465 1 4 7 -4 754. 1720. 517. o
466 2 0 7 -4 4847. 4984. 341. o
466 1 0 7 4 4847. 4984. 341. o
467 2 0 7 4 4844. 5367. 329. o
467 1 0 7 -4 4844. 5367. 329. o
468 2 -1 7 -4 321. 394. 249. <
468 1 1 7 4 321. 394. 249. <
469 2 -1 7 4 320. 570. 259. o
469 1 1 7 -4 320. 570. 259. o
470 2 -2 7 -4 678. 611. 207. o
470 1 2 7 4 678. 611. 207. o
471 2 -2 7 4 680. 922. 259. o
471 1 2 7 -4 680. 922. 259. o
472 2 -3 7 -4 283. 280. 269. <
472 1 3 7 4 283. 280. 269. <
473 2 -3 7 4 284. 311. 238. <
473 1 3 7 -4 284. 311. 238. <
474 3 4 -7 4 736. 995. 497. <
474 2 -4 7 -4 736. 995. 497. <
474 1 4 7 4 736. 995. 497. <
475 3 -4 -7 -4 734. 1347. 507. o
475 2 4 7 4 734. 1347. 507. o
475 1 -4 7 -4 734. 1347. 507. o
476 2 -5 7 -4 271. 933. 269. o
476 1 5 7 4 271. 933. 269. o
477 2 -5 7 4 272. 705. 238. o
477 1 5 7 -4 272. 705. 238. o
478 2 -6 7 -4 1389. 1171. 311. o
478 1 6 7 4 1389. 1171. 311. o
479 2 -6 7 4 1390. 1461. 269. o
479 1 6 7 -4 1390. 1461. 269. o
480 2 -7 7 -4 348. 798. 404. <
480 1 7 7 4 348. 798. 404. <
481 2 -7 7 4 349. 1046. 414. o
481 1 7 7 -4 349. 1046. 414. o
482 3 -3 -8 -11 42763. 46822. 756. o
482 2 4 8 -4 42763. 46822. 756. o
482 1 -4 8 4 42763. 46822. 756. o
483 3 3 -8 11 42780. 44667. 748. o
483 2 -4 8 4 42780. 44667. 748. o
483 1 4 8 -4 42780. 44667. 748. o
484 2 0 8 -4 60502. 53329. 679. o
484 1 0 8 4 60502. 53329. 679. o
485 2 0 8 4 60523. 54666. 659. o
485 1 0 8 -4 60523. 54666. 659. o
486 2 -1 8 -4 3246. 3626. 258. o
486 1 1 8 4 3246. 3626. 258. o
487 2 -1 8 4 3248. 3347. 259. o
487 1 1 8 -4 3248. 3347. 259. o
488 2 -2 8 -4 15920. 15542. 296. o
488 1 2 8 4 15920. 15542. 296. o
489 2 -2 8 4 15901. 16070. 298. o
489 1 2 8 -4 15901. 16070. 298. o
490 2 -3 8 -4 705. 1606. 237. o
490 1 3 8 4 705. 1606. 237. o
491 2 -3 8 4 705. 1523. 279. o
491 1 3 8 -4 705. 1523. 279. o
492 3 4 -8 4 42997. 45040. 767. o
492 2 -4 8 -4 42997. 45040. 767. o
492 1 4 8 4 42997. 45040. 767. o
493 3 -4 -8 -4 43012. 44139. 760. o
493 2 4 8 4 43012. 44139. 760. o
493 1 -4 8 -4 43012. 44139. 760. o
494 2 -5 8 -4 4449. 6134. 303. o
494 1 5 8 4 4449. 6134. 303. o
495 2 -5 8 4 4449. 5315. 297. o
495 1 5 8 -4 4449. 5315. 297. o
496 2 -6 8 -4 4731. 2746. 306. o
496 1 6 8 4 4731. 2746. 306. o
497 2 -6 8 4 4729. 2787. 296. o
497 1 6 8 -4 4729. 2787. 296. o
498 2 -7 8 -4 13. 1212. 331. o
498 1 7 8 4 13. 1212. 331. o
499 2 -7 8 4 13. 974. 290. o
499 1 7 8 -4 13. 974. 290. o
500 3 -3 -9 -11 763. 891. 539. <
500 2 4 9 -4 763. 891. 539. <
500 1 -4 9 4 763. 891. 539. <
501 3 3 -9 11 764. 1233. 539. o
501 2 -4 9 4 764. 1233. 539. o
501 1 4 9 -4 764. 1233. 539. o
502 2 0 9 -4 3262. 4352. 412. o
502 1 0 9 4 3262. 4352. 412. o
503 2 0 9 4 3264. 4331. 370. o
503 1 0 9 -4 3264. 4331. 370. o
504 2 -1 9 -4 70. 591. 269. o
504 1 1 9 4 70. 591. 269. o
505 2 -1 9 4 71. -155. 300. <
505 1 1 9 -4 71. -155. 300. <
506 2 -2 9 -4 2. 715. 279. o
506 1 2 9 4 2. 715. 279. o
507 2 -2 9 4 2. 673. 269. o
507 1 2 9 -4 2. 673. 269. o
508 2 -3 9 -4 865. 756. 259. o
508 1 3 9 4 865. 756. 259. o
509 2 -3 9 4 863. 580. 332. <
509 1 3 9 -4 863. 580. 332. <
510 3 4 -9 4 746. 1181. 580. o
510 2 -4 9 -4 746. 1181. 580. o
510 1 4 9 4 746. 1181. 580. o
511 3 -4 -9 -4 748. 1046. 590. <
511 2 4 9 4 748. 1046. 590. <
511 1 -4 9 -4 748. 1046. 590. <
512 2 -5 9 -4 87. 1264. 310. o
512 1 5 9 4 87. 1264. 310. o
513 2 -5 9 4 86. 1088. 341. o
513 1 5 9 -4 86. 1088. 341. o
514 2 0 10 -4 5600. 4455. 408. o
514 1 0 10 4 5600. 4455. 408. o
515 2 0 10 4 5595. 4404. 408. o
515 1 0 10 -4 5595. 4404. 408. o
516 2 -1 10 -4 98. 943. 300. o
516 1 1 10 4 98. 943. 300. o
517 2 -1 10 4 98. 798. 279. o
517 1 1 10 -4 98. 798. 279. o
518 2 -2 10 -4 21243. 18350. 402. o
518 1 2 10 4 21243. 18350. 402. o
519 2 -2 10 4 21244. 17604. 419. o
519 1 2 10 -4 21244. 17604. 419. o
520 2 -3 10 -4 1423. 2352. 309. o
520 1 3 10 4 1423. 2352. 309. o
521 2 -3 10 4 1423. 2652. 319. o
521 1 3 10 -4 1423. 2652. 319. o
522 2 -1 1 -5 4718. 11853. 625. o
522 1 1 1 5 4718. 11853. 625. o
523 2 -1 1 5 4709. 11314. 820. o
523 1 1 1 -5 4709. 11314. 820. o
524 2 -1 2 -5 10076. 7077. 420. o
524 1 1 2 5 10076. 7077. 420. o
525 2 -1 2 5 10083. 6870. 391. o
525 1 1 2 -5 10083. 6870. 391. o
526 2 -2 2 -5 17022. 6807. 569. o
526 1 2 2 5 17022. 6807. 569. o
527 2 -2 2 5 17017. 6963. 541. o
527 1 2 2 -5 17017. 6963. 541. o
528 2 -1 3 -5 13033. 14703. 312. o
528 1 1 3 5 13033. 14703. 312. o
529 2 -1 3 5 13016. 14475. 347. o
529 1 1 3 -5 13016. 14475. 347. o
530 2 -2 3 -5 667. 705. 280. o
530 1 2 3 5 667. 705. 280. o
531 2 -2 3 5 672. 560. 280. <
531 1 2 3 -5 672. 560. 280. <
532 2 -3 3 -5 12385. 11946. 480. o
532 1 3 3 5 12385. 11946. 480. o
533 3 2 -3 10 13042. 11076. 744. o
533 2 -3 3 5 13042. 11076. 744. o
533 1 3 3 -5 13042. 11076. 744. o
534 2 3 3 5 12374. 11594. 595. o
534 1 -3 3 -5 12374. 11594. 595. o
535 3 2 -3 10 13042. 11397. 732. o
535 2 -3 3 5 13042. 11397. 732. o
535 1 3 3 -5 13042. 11397. 732. o
536 2 -1 4 -5 14576. 11242. 344. o
536 1 1 4 5 14576. 11242. 344. o
537 2 -1 4 5 14565. 11211. 354. o
537 1 1 4 -5 14565. 11211. 354. o
538 2 -2 4 -5 11675. 5906. 347. o
538 1 2 4 5 11675. 5906. 347. o
539 2 -2 4 5 11674. 5730. 320. o
539 1 2 4 -5 11674. 5730. 320. o
540 2 -3 4 -5 1763. 1741. 269. o
540 1 3 4 5 1763. 1741. 269. o
541 2 3 4 5 1759. 1875. 362. o
541 1 -3 4 -5 1759. 1875. 362. o
542 3 2 -4 10 1806. 1647. 736. o
542 2 -3 4 5 1806. 1647. 736. o
542 1 3 4 -5 1806. 1647. 736. o
543 2 3 4 5 1759. 2393. 548. o
543 1 -3 4 -5 1759. 2393. 548. o
544 3 2 -4 10 1806. 2932. 797. o
544 2 -3 4 5 1806. 2932. 797. o
544 1 3 4 -5 1806. 2932. 797. o
545 2 3 4 5 1759. 1824. 850. o
545 1 -3 4 -5 1759. 1824. 850. o
546 2 -4 4 -5 9998. 5460. 375. o
546 1 4 4 5 9998. 5460. 375. o
547 2 -4 4 5 10004. 5212. 396. o
547 1 4 4 -5 10004. 5212. 396. o
548 2 5 5 -5 5643. 4673. 459. o
548 1 -5 5 5 5643. 4673. 459. o
549 2 -5 5 5 5651. 4414. 511. o
549 1 5 5 -5 5651. 4414. 511. o
550 2 -1 5 -5 35827. 43652. 841. o
550 1 1 5 5 35827. 43652. 841. o
551 2 -1 5 5 35796. 43300. 852. o
551 1 1 5 -5 35796. 43300. 852. o
552 2 -2 5 -5 1677. 249. 281. <
552 1 2 5 5 1677. 249. 281. <
553 2 -2 5 5 1678. 570. 239. o
553 1 2 5 -5 1678. 570. 239. o
554 2 -3 5 -5 35536. 41383. 92. o
554 1 3 5 5 35536. 41383. 92. o
555 3 2 -5 10 35523. 44533. 923. o
555 2 -3 5 5 35523. 44533. 923. o
555 1 3 5 -5 35523. 44533. 923. o
556 2 3 5 5 35518. 40844. 229. o
556 1 -3 5 -5 35518. 40844. 229. o
557 3 2 -5 10 35523. 39922. 1013. o
557 2 -3 5 5 35523. 39922. 1013. o
557 1 3 5 -5 35523. 39922. 1013. o
558 2 3 5 5 35518. 38627. 1048. o
558 1 -3 5 -5 35518. 38627. 1048. o
559 2 -4 5 -5 1893. 1378. 250. o
559 1 4 5 5 1893. 1378. 250. o
560 2 -4 5 5 1897. 1388. 239. o
560 1 4 5 -5 1897. 1388. 239. o
561 3 5 -5 5 5675. 4424. 521. o
561 2 -5 5 -5 5675. 4424. 521. o
561 1 5 5 5 5675. 4424. 521. o
562 2 -5 5 5 5651. 5771. 570. o
562 1 5 5 -5 5651. 5771. 570. o
563 2 5 6 -5 59. 218. 290. <
563 1 -5 6 5 59. 218. 290. <
564 2 -5 6 5 60. 518. 290. <
564 1 5 6 -5 60. 518. 290. <
565 2 -1 6 -5 3079. 2269. 220. o
565 1 1 6 5 3079. 2269. 220. o
566 2 -1 6 5 3074. 2425. 281. o
566 1 1 6 -5 3074. 2425. 281. o
567 2 -2 6 -5 1838. 3077. 256. o
567 1 2 6 5 1838. 3077. 256. o
568 2 -2 6 5 1839. 1772. 270. o
568 1 2 6 -5 1839. 1772. 270. o
569 2 -3 6 -5 237. -10. 238. <
569 1 3 6 5 237. -10. 238. <
570 3 2 -6 10 1130. -570. 746. <
570 2 -3 6 5 1130. -570. 746. <
570 1 3 6 -5 1130. -570. 746. <
571 2 3 6 5 236. 487. 342. <
571 1 -3 6 -5 236. 487. 342. <
572 3 2 -6 10 1130. 352. 694. <
572 2 -3 6 5 1130. 352. 694. <
572 1 3 6 -5 1130. 352. 694. <
573 2 3 6 5 236. 259. 446. <
573 1 -3 6 -5 236. 259. 446. <
574 2 -4 6 -5 2428. 1834. 260. o
574 1 4 6 5 2428. 1834. 260. o
575 2 -4 6 5 2431. 2238. 249. o
575 1 4 6 -5 2431. 2238. 249. o
576 3 5 -6 5 60. 1046. 570. <
576 2 -5 6 -5 60. 1046. 570. <
576 1 5 6 5 60. 1046. 570. <
577 2 -5 6 5 60. 1046. 559. <
577 1 5 6 -5 60. 1046. 559. <
578 2 -6 6 -5 335. 363. 425. <
578 1 6 6 5 335. 363. 425. <
579 2 -6 6 5 337. 591. 394. <
579 1 6 6 -5 337. 591. 394. <
580 2 5 7 -5 12610. 11004. 396. o
580 1 -5 7 5 12610. 11004. 396. o
581 2 -5 7 5 12614. 10745. 329. o
581 1 5 7 -5 12614. 10745. 329. o
582 2 -1 7 -5 38322. 48604. 898. o
582 1 1 7 5 38322. 48604. 898. o
583 2 -1 7 5 38296. 48874. 916. o
583 1 1 7 -5 38296. 48874. 916. o
584 2 -2 7 -5 2989. 2248. 240. o
584 1 2 7 5 2989. 2248. 240. o
585 2 -2 7 5 2988. 2176. 271. o
585 1 2 7 -5 2988. 2176. 271. o
586 2 -3 7 -5 10110. 13076. 278. o
586 1 3 7 5 10110. 13076. 278. o
587 2 3 7 5 10103. 12444. 589. o
587 1 -3 7 -5 10103. 12444. 589. o
588 3 2 -7 10 10196. 13262. 658. o
588 2 -3 7 5 10196. 13262. 658. o
588 1 3 7 -5 10196. 13262. 658. o
589 2 3 7 5 10103. 11998. 411. o
589 1 -3 7 -5 10103. 11998. 411. o
590 3 2 -7 10 10196. 13242. 880. o
590 2 -3 7 5 10196. 13242. 880. o
590 1 3 7 -5 10196. 13242. 880. o
591 2 -4 7 -5 2372. 1896. 281. o
591 1 4 7 5 2372. 1896. 281. o
592 2 -4 7 5 2374. 1989. 239. o
592 1 4 7 -5 2374. 1989. 239. o
593 3 5 -7 5 12679. 11522. 546. o
593 2 -5 7 -5 12679. 11522. 546. o
593 1 5 7 5 12679. 11522. 546. o
594 2 -5 7 5 12614. 9802. 574. o
594 1 5 7 -5 12614. 9802. 574. o
595 2 -6 7 -5 968. 1233. 311. o
595 1 6 7 5 968. 1233. 311. o
596 2 -6 7 5 971. 1264. 269. o
596 1 6 7 -5 971. 1264. 269. o
597 2 -7 7 -5 585. 1523. 403. o
597 1 7 7 5 585. 1523. 403. o
598 2 -7 7 5 591. 819. 435. <
598 1 7 7 -5 591. 819. 435. <
599 2 5 8 -5 220. 477. 342. <
599 1 -5 8 5 220. 477. 342. <
600 2 -5 8 5 220. 953. 290. o
600 1 5 8 -5 220. 953. 290. o
601 2 -1 8 -5 169. 642. 248. o
601 1 1 8 5 169. 642. 248. o
602 2 -1 8 5 170. 383. 269. <
602 1 1 8 -5 170. 383. 269. <
603 2 -2 8 -5 34. 197. 249. <
603 1 2 8 5 34. 197. 249. <
604 2 -2 8 5 34. 311. 290. <
604 1 2 8 -5 34. 311. 290. <
605 2 -3 8 -5 6. 259. 249. <
605 1 3 8 5 6. 259. 249. <
606 3 2 -8 10 40. 31. 850. <
606 2 -3 8 5 40. 31. 850. <
606 1 3 8 -5 40. 31. 850. <
607 2 3 8 5 6. 280. 352. <
607 1 -3 8 -5 6. 280. 352. <
608 3 2 -8 10 40. 829. 839. <
608 2 -3 8 5 40. 829. 839. <
608 1 3 8 -5 40. 829. 839. <
609 2 -4 8 -5 97. 746. 269. o
609 1 4 8 5 97. 746. 269. o
610 2 -4 8 5 97. 995. 300. o
610 1 4 8 -5 97. 995. 300. o
611 3 5 -8 5 222. 549. 559. <
611 2 -5 8 -5 222. 549. 559. <
611 1 5 8 5 222. 549. 559. <
612 2 -5 8 5 220. 1419. 600. o
612 1 5 8 -5 220. 1419. 600. o
613 2 -6 8 -5 37. 653. 311. o
613 1 6 8 5 37. 653. 311. o
614 2 -6 8 5 37. 943. 290. o
614 1 6 8 -5 37. 943. 290. o
615 2 -7 8 -5 98. 694. 342. o
615 1 7 8 5 98. 694. 342. o
616 2 -7 8 5 98. 1067. 300. o
616 1 7 8 -5 98. 1067. 300. o
617 2 5 9 -5 318. 912. 352. o
617 1 -5 9 5 318. 912. 352. o
618 2 -5 9 5 320. 1243. 404. o
618 1 5 9 -5 320. 1243. 404. o
619 2 -1 9 -5 9791. 13003. 276. o
619 1 1 9 5 9791. 13003. 276. o
620 2 -1 9 5 9781. 13438. 282. o
620 1 1 9 -5 9781. 13438. 282. o
621 2 -2 9 -5 650. 736. 280. o
621 1 2 9 5 650. 736. 280. o
622 2 -2 9 5 650. 870. 311. o
622 1 2 9 -5 650. 870. 311. o
623 2 -3 9 -5 10882. 12620. 270. o
623 1 3 9 5 10882. 12620. 270. o
624 3 2 -9 10 10891. 14060. 994. o
624 2 -3 9 5 10891. 14060. 994. o
624 1 3 9 -5 10891. 14060. 994. o
625 2 3 9 5 10875. 12651. 464. o
625 1 -3 9 -5 10875. 12651. 464. o
626 3 2 -9 10 10891. 14485. 866. o
626 2 -3 9 5 10891. 14485. 866. o
626 1 3 9 -5 10891. 14485. 866. o
627 2 3 9 5 10875. 12392. 666. o
627 1 -3 9 -5 10875. 12392. 666. o
628 2 -4 9 -5 1362. 1627. 269. o
628 1 4 9 5 1362. 1627. 269. o
629 2 -4 9 5 1363. 1906. 320. o
629 1 4 9 -5 1363. 1906. 320. o
630 3 5 -9 5 320. 891. 642. <
630 2 -5 9 -5 320. 891. 642. <
630 1 5 9 5 320. 891. 642. <
631 2 -5 9 5 320. 1160. 621. <
631 1 5 9 -5 320. 1160. 621. <
632 2 -1 10 -5 631. 1824. 289. o
632 1 1 10 5 631. 1824. 289. o
633 2 -1 10 5 633. 1419. 300. o
633 1 1 10 -5 633. 1419. 300. o
634 2 -2 10 -5 447. 953. 300. o
634 1 2 10 5 447. 953. 300. o
635 2 -2 10 5 447. 1285. 300. o
635 1 2 10 -5 447. 1285. 300. o
636 2 -3 10 -5 227. 1212. 310. o
636 1 3 10 5 227. 1212. 310. o
637 2 3 10 5 227. 1140. 559. o
637 1 -3 10 -5 227. 1140. 559. o
638 3 2 -10 10 349. 1938. 1004. <
638 2 -3 10 5 349. 1938. 1004. <
638 1 3 10 -5 349. 1938. 1004. <
639 2 3 10 5 227. 694. 725. <
639 1 -3 10 -5 227. 694. 725. <
640 3 2 -10 10 349. 1409. 849. <
640 2 -3 10 5 349. 1409. 849. <
640 1 3 10 -5 349. 1409. 849. <
641 2 3 10 5 227. 1565. 942. <
641 1 -3 10 -5 227. 1565. 942. <
642 2 0 0 -6 55157. 79502. 2066. o
642 1 0 0 6 55157. 79502. 2066. o
643 2 0 0 6 55122. 78631. 2098. o
643 1 0 0 -6 55122. 78631. 2098. o
644 2 0 1 -6 27766. 31301. 707. o
644 1 0 1 6 27766. 31301. 707. o
645 2 0 1 6 27780. 31581. 834. o
645 1 0 1 -6 27780. 31581. 834. o
646 2 -1 1 -6 5454. 3865. 583. o
646 1 1 1 6 5454. 3865. 583. o
647 2 -1 1 6 5453. 3616. 646. o
647 1 1 1 -6 5453. 3616. 646. o
648 2 0 2 -6 441690. 551456. 9858. o
648 1 0 2 6 441690. 551456. 9858. o
649 2 0 2 6 441685. 527418. 9624. o
649 1 0 2 -6 441685. 527418. 9624. o
650 2 -1 2 -6 18056. 19956. 412. o
650 1 1 2 6 18056. 19956. 412. o
651 2 -1 2 6 18055. 19479. 451. o
651 1 1 2 -6 18055. 19479. 451. o
652 2 -2 2 -6 169257. 206997. 3811. o
652 1 2 2 6 169257. 206997. 3811. o
653 3 1 -2 9 169411. 193102. 1172. o
653 2 -2 2 6 169411. 193102. 1172. o
653 1 2 2 -6 169411. 193102. 1172. o
654 2 2 2 6 169314. 199288. 2526. o
654 1 -2 2 -6 169314. 199288. 2526. o
655 3 1 -2 9 169411. 215762. 4165. o
655 2 -2 2 6 169411. 215762. 4165. o
655 1 2 2 -6 169411. 215762. 4165. o
656 2 2 2 6 169314. 209815. 4114. o
656 1 -2 2 -6 169314. 209815. 4114. o
657 2 0 3 -6 3059. 3544. 445. o
657 1 0 3 6 3059. 3544. 445. o
658 2 0 3 6 3053. 3285. 476. o
658 1 0 3 -6 3053. 3285. 476. o
659 2 -1 3 -6 2853. 694. 324. o
659 1 1 3 6 2853. 694. 324. o
660 2 -1 3 6 2853. 414. 313. <
660 1 1 3 -6 2853. 414. 313. <
661 2 -2 3 -6 24279. 24131. 396. o
661 1 2 3 6 24279. 24131. 396. o
662 2 2 3 6 24287. 23924. 718. o
662 1 -2 3 -6 24287. 23924. 718. o
663 3 1 -3 9 24575. 23945. 865. o
663 2 -2 3 6 24575. 23945. 865. o
663 1 2 3 -6 24575. 23945. 865. o
664 2 2 3 6 24287. 25074. 1094. o
664 1 -2 3 -6 24287. 25074. 1094. o
665 3 1 -3 9 24575. 24204. 1059. o
665 2 -2 3 6 24575. 24204. 1059. o
665 1 2 3 -6 24575. 24204. 1059. o
666 2 2 3 6 24287. 22069. 573. o
666 1 -2 3 -6 24287. 22069. 573. o
667 2 -3 3 -6 31845. 20277. 646. o
667 1 3 3 6 31845. 20277. 646. o
668 2 -3 3 6 31847. 18982. 614. o
668 1 3 3 -6 31847. 18982. 614. o
669 2 0 4 -6 229832. 268014. 4934. o
669 1 0 4 6 229832. 268014. 4934. o
670 2 0 4 6 229806. 265755. 4985. o
670 1 0 4 -6 229806. 265755. 4985. o
671 2 -1 4 -6 7965. 9284. 301. o
671 1 1 4 6 7965. 9284. 301. o
672 2 -1 4 6 7962. 9367. 311. o
672 1 1 4 -6 7962. 9367. 311. o
673 2 -2 4 -6 65417. 82548. 1504. o
673 1 2 4 6 65417. 82548. 1504. o
674 2 2 4 6 65402. 79699. 1531. o
674 1 -2 4 -6 65402. 79699. 1531. o
675 3 1 -4 9 65493. 84931. 134. o
675 2 -2 4 6 65493. 84931. 134. o
675 1 2 4 -6 65493. 84931. 134. o
676 2 2 4 6 65402. 81025. 328. o
676 1 -2 4 -6 65402. 81025. 328. o
677 2 -3 4 -6 10585. 10102. 295. o
677 1 3 4 6 10585. 10102. 295. o
678 2 -3 4 6 10582. 9719. 288. o
678 1 3 4 -6 10582. 9719. 288. o
679 2 -4 4 -6 157391. 173582. 3357. o
679 1 4 4 6 157391. 173582. 3357. o
680 2 -4 4 6 157417. 163345. 306. o
680 1 4 4 -6 157417. 163345. 306. o
681 2 0 5 -6 28110. 22619. 485. o
681 1 0 5 6 28110. 22619. 485. o
682 2 0 5 6 28096. 23945. 589. o
682 1 0 5 -6 28096. 23945. 589. o
683 2 -1 5 -6 5544. 4901. 273. o
683 1 1 5 6 5544. 4901. 273. o
684 2 -1 5 6 5544. 4694. 314. o
684 1 1 5 -6 5544. 4694. 314. o
685 2 -2 5 -6 2416. 2528. 259. o
685 1 2 5 6 2416. 2528. 259. o
686 3 1 -5 9 2660. 2197. 881. o
686 2 -2 5 6 2660. 2197. 881. o
686 1 2 5 -6 2660. 2197. 881. o
687 2 2 5 6 2412. 2528. 404. o
687 1 -2 5 -6 2412. 2528. 404. o
688 3 1 -5 9 2660. 2870. 746. o
688 2 -2 5 6 2660. 2870. 746. o
688 1 2 5 -6 2660. 2870. 746. o
689 2 2 5 6 2412. 1979. 446. o
689 1 -2 5 -6 2412. 1979. 446. o
690 2 -3 5 -6 7263. 3502. 287. o
690 1 3 5 6 7263. 3502. 287. o
691 2 -3 5 6 7264. 3316. 277. o
691 1 3 5 -6 7264. 3316. 277. o
692 2 -4 5 -6 3664. 3285. 260. o
692 1 4 5 6 3664. 3285. 260. o
693 2 -4 5 6 3664. 2974. 261. o
693 1 4 5 -6 3664. 2974. 261. o
694 2 -5 5 -6 8384. 7077. 360. o
694 1 5 5 6 8384. 7077. 360. o
695 2 -5 5 6 8390. 7129. 410. o
695 1 5 5 -6 8390. 7129. 410. o
696 2 6 6 -6 40580. 37767. 774. o
696 1 -6 6 6 40580. 37767. 774. o
697 2 -6 6 6 40554. 35021. 750. o
697 1 6 6 -6 40554. 35021. 750. o
698 2 0 6 -6 10857. 5574. 400. o
698 1 0 6 6 10857. 5574. 400. o
699 2 0 6 6 10887. 5512. 449. o
699 1 0 6 -6 10887. 5512. 449. o
700 2 -1 6 -6 8366. 6766. 241. o
700 1 1 6 6 8366. 6766. 241. o
701 2 -1 6 6 8367. 6983. 299. o
701 1 1 6 -6 8367. 6983. 299. o
702 2 -2 6 -6 163496. 189818. 3491. o
702 1 2 6 6 163496. 189818. 3491. o
703 2 2 6 6 163467. 189849. 3673. o
703 1 -2 6 -6 163467. 189849. 3673. o
704 3 1 -6 9 163490. 198065. 3801. o
704 2 -2 6 6 163490. 198065. 3801. o
704 1 2 6 -6 163490. 198065. 3801. o
705 2 2 6 6 163467. 176680. 196. o
705 1 -2 6 -6 163467. 176680. 196. o
706 3 1 -6 9 163490. 195164. 3897. o
706 2 -2 6 6 163490. 195164. 3897. o
706 1 2 6 -6 163490. 195164. 3897. o
707 2 2 6 6 163467. 185694. 3580. o
707 1 -2 6 -6 163467. 185694. 3580. o
708 2 -3 6 -6 3186. 1347. 253. o
708 1 3 6 6 3186. 1347. 253. o
709 2 -3 6 6 3187. 1067. 242. o
709 1 3 6 -6 3187. 1067. 242. o
710 2 -4 6 -6 15134. 17220. 280. o
710 1 4 6 6 15134. 17220. 280. o
711 2 -4 6 6 15140. 16588. 245. o
711 1 4 6 -6 15140. 16588. 245. o
712 2 -5 6 -6 5916. 4600. 276. o
712 1 5 6 6 5916. 4600. 276. o
713 2 -5 6 6 5921. 4580. 266. o
713 1 5 6 -6 5921. 4580. 266. o
714 3 6 -6 6 40801. 38119. 733. o
714 2 -6 6 -6 40801. 38119. 733. o
714 1 6 6 6 40801. 38119. 733. o
715 2 -6 6 6 40554. 35487. 754. o
715 1 6 6 -6 40554. 35487. 754. o
716 2 6 7 -6 909. 953. 363. o
716 1 -6 7 6 909. 953. 363. o
717 2 -6 7 6 908. 1067. 311. o
717 1 6 7 -6 908. 1067. 311. o
718 2 0 7 -6 2295. 2425. 331. o
718 1 0 7 6 2295. 2425. 331. o
719 2 0 7 6 2296. 2331. 331. o
719 1 0 7 -6 2296. 2331. 331. o
720 2 -1 7 -6 16. 466. 217. o
720 1 1 7 6 16. 466. 217. o
721 2 -1 7 6 17. 321. 259. <
721 1 1 7 -6 17. 321. 259. <
722 2 -2 7 -6 3354. 2860. 250. o
722 1 2 7 6 3354. 2860. 250. o
723 2 2 7 6 3353. 1689. 778. o
723 1 -2 7 -6 3353. 1689. 778. o
724 3 1 -7 9 3502. 2932. 726. o
724 2 -2 7 6 3502. 2932. 726. o
724 1 2 7 -6 3502. 2932. 726. o
725 2 2 7 6 3353. 3367. 870. o
725 1 -2 7 -6 3353. 3367. 870. o
726 3 1 -7 9 3502. 2798. 778. o
726 2 -2 7 6 3502. 2798. 778. o
726 1 2 7 -6 3502. 2798. 778. o
727 2 2 7 6 3353. 2621. 364. o
727 1 -2 7 -6 3353. 2621. 364. o
728 2 -3 7 -6 1586. 2518. 267. o
728 1 3 7 6 1586. 2518. 267. o
729 2 -3 7 6 1584. 2290. 247. o
729 1 3 7 -6 1584. 2290. 247. o
730 2 -4 7 -6 2637. 2238. 270. o
730 1 4 7 6 2637. 2238. 270. o
731 2 -4 7 6 2639. 2279. 239. o
731 1 4 7 -6 2639. 2279. 239. o
732 2 -5 7 -6 58. 446. 280. <
732 1 5 7 6 58. 446. 280. <
733 2 -5 7 6 59. 508. 248. o
733 1 5 7 -6 59. 508. 248. o
734 3 6 -7 6 914. 953. 591. <
734 2 -6 7 -6 914. 953. 591. <
734 1 6 7 6 914. 953. 591. <
735 2 -6 7 6 908. 1461. 559. o
735 1 6 7 -6 908. 1461. 559. o
736 2 -7 7 -6 432. 1492. 414. o
736 1 7 7 6 432. 1492. 414. o
737 2 -7 7 6 432. 1036. 404. o
737 1 7 7 -6 432. 1036. 404. o
738 2 6 8 -6 7301. 8030. 390. o
738 1 -6 8 6 7301. 8030. 390. o
739 2 -6 8 6 7306. 7118. 343. o
739 1 6 8 -6 7306. 7118. 343. o
740 2 0 8 -6 97271. 115030. 2165. o
740 1 0 8 6 97271. 115030. 2165. o
741 2 0 8 6 97249. 120429. 2208. o
741 1 0 8 -6 97249. 120429. 2208. o
742 2 -1 8 -6 1341. 1254. 259. o
742 1 1 8 6 1341. 1254. 259. o
743 2 -1 8 6 1340. 725. 291. o
743 1 1 8 -6 1340. 725. 291. o
744 2 -2 8 -6 3371. 787. 253. o
744 1 2 8 6 3371. 787. 253. o
745 2 2 8 6 3377. 736. 355. o
745 1 -2 8 -6 3377. 736. 355. o
746 3 1 -8 9 3380. 539. 520. <
746 2 -2 8 6 3380. 539. 520. <
746 1 2 8 -6 3380. 539. 520. <
747 2 -3 8 -6 6213. 4196. 259. o
747 1 3 8 6 6213. 4196. 259. o
748 2 -3 8 6 6215. 4072. 299. o
748 1 3 8 -6 6215. 4072. 299. o
749 2 -4 8 -6 41820. 44066. 321. o
749 1 4 8 6 41820. 44066. 321. o
750 2 -4 8 6 41812. 44128. 344. o
750 1 4 8 -6 41812. 44128. 344. o
751 2 -5 8 -6 711. 218. 290. <
751 1 5 8 6 711. 218. 290. <
752 2 -5 8 6 711. 901. 269. o
752 1 5 8 -6 711. 901. 269. o
753 3 6 -8 6 7341. 8838. 731. o
753 2 -6 8 -6 7341. 8838. 731. o
753 1 6 8 6 7341. 8838. 731. o
754 2 -6 8 6 7306. 7066. 705. o
754 1 6 8 -6 7306. 7066. 705. o
755 2 -7 8 -6 1010. 1513. 352. o
755 1 7 8 6 1010. 1513. 352. o
756 2 -7 8 6 1011. 839. 301. o
756 1 7 8 -6 1011. 839. 301. o
757 2 0 9 -6 519. 352. 352. <
757 1 0 9 6 519. 352. 352. <
758 2 0 9 6 518. 580. 373. <
758 1 0 9 -6 518. 580. 373. <
759 2 -1 9 -6 13. 1109. 279. o
759 1 1 9 6 13. 1109. 279. o
760 2 -1 9 6 13. 725. 290. o
760 1 1 9 -6 13. 725. 290. o
761 2 -2 9 -6 2506. 2207. 280. o
761 1 2 9 6 2506. 2207. 280. o
762 3 1 -9 9 2547. 1679. 974. <
762 2 -2 9 6 2547. 1679. 974. <
762 1 2 9 -6 2547. 1679. 974. <
763 2 2 9 6 2507. 2124. 891. o
763 1 -2 9 -6 2507. 2124. 891. o
764 3 1 -9 9 2547. 1906. 674. o
764 2 -2 9 6 2547. 1906. 674. o
764 1 2 9 -6 2547. 1906. 674. o
765 2 2 9 6 2507. 2279. 456. o
765 1 -2 9 -6 2507. 2279. 456. o
766 2 -3 9 -6 885. 1637. 279. o
766 1 3 9 6 885. 1637. 279. o
767 2 -3 9 6 886. 1575. 300. o
767 1 3 9 -6 886. 1575. 300. o
768 2 -4 9 -6 767. 1098. 269. o
768 1 4 9 6 767. 1098. 269. o
769 2 -4 9 6 767. 1223. 331. o
769 1 4 9 -6 767. 1223. 331. o
770 2 -5 9 -6 17. 995. 258. o
770 1 5 9 6 17. 995. 258. o
771 2 -5 9 6 16. 1119. 321. o
771 1 5 9 -6 16. 1119. 321. o
772 2 0 10 -6 1505. 342. 353. <
772 1 0 10 6 1505. 342. 353. <
773 2 0 10 6 1506. 870. 405. o
773 1 0 10 -6 1506. 870. 405. o
774 2 -1 10 -6 1113. 1368. 290. o
774 1 1 10 6 1113. 1368. 290. o
775 2 -1 10 6 1113. 1202. 300. o
775 1 1 10 -6 1113. 1202. 300. o
776 2 -2 10 -6 25791. 26235. 354. o
776 1 2 10 6 25791. 26235. 354. o
777 3 1 -10 9 25795. 25084. 1227. o
777 2 -2 10 6 25795. 25084. 1227. o
777 1 2 10 -6 25795. 25084. 1227. o
778 2 2 10 6 25793. 26193. 753. o
778 1 -2 10 -6 25793. 26193. 753. o
779 3 1 -10 9 25795. 31167. 1091. o
779 2 -2 10 6 25795. 31167. 1091. o
779 1 2 10 -6 25795. 31167. 1091. o
780 2 2 10 6 25793. 25126. 568. o
780 1 -2 10 -6 25793. 25126. 568. o
781 2 -3 10 -6 275. 1461. 299. o
781 1 3 10 6 275. 1461. 299. o
782 2 -3 10 6 275. 839. 321. o
782 1 3 10 -6 275. 839. 321. o
783 2 -1 1 -7 1756. 487. 519. <
783 1 1 1 7 1756. 487. 519. <
784 3 0 -1 8 1759. 414. 1171. <
784 2 -1 1 7 1759. 414. 1171. <
784 1 1 1 -7 1759. 414. 1171. <
785 2 1 1 7 1751. 332. 943. <
785 1 -1 1 -7 1751. 332. 943. <
786 2 -1 2 -7 27902. 25240. 429. o
786 1 1 2 7 27902. 25240. 429. o
787 2 1 2 7 27914. 25862. 1009. o
787 1 -1 2 -7 27914. 25862. 1009. o
788 3 0 -2 8 28115. 26235. 886. o
788 2 -1 2 7 28115. 26235. 886. o
788 1 1 2 -7 28115. 26235. 886. o
789 2 1 2 7 27914. 25271. 690. o
789 1 -1 2 -7 27914. 25271. 690. o
790 2 -2 2 -7 1491. 446. 456. <
790 1 2 2 7 1491. 446. 456. <
791 2 -2 2 7 1477. 52. 467. <
791 1 2 2 -7 1477. 52. 467. <
792 2 -1 3 -7 1452. 2601. 277. o
792 1 1 3 7 1452. 2601. 277. o
793 3 0 -3 8 1545. 2528. 735. o
793 2 -1 3 7 1545. 2528. 735. o
793 1 1 3 -7 1545. 2528. 735. o
794 2 1 3 7 1457. 2787. 631. o
794 1 -1 3 -7 1457. 2787. 631. o
795 3 0 -3 8 1545. 2228. 860. o
795 2 -1 3 7 1545. 2228. 860. o
795 1 1 3 -7 1545. 2228. 860. o
796 2 1 3 7 1457. 2704. 537. o
796 1 -1 3 -7 1457. 2704. 537. o
797 2 -2 3 -7 3217. 2611. 333. o
797 1 2 3 7 3217. 2611. 333. o
798 2 -2 3 7 3223. 2839. 301. o
798 1 2 3 -7 3223. 2839. 301. o
799 2 -3 3 -7 1794. 2062. 414. o
799 1 3 3 7 1794. 2062. 414. o
800 2 -3 3 7 1791. 2041. 456. o
800 1 3 3 -7 1791. 2041. 456. o
801 2 -1 4 -7 21648. 24753. 279. o
801 1 1 4 7 21648. 24753. 279. o
802 2 1 4 7 21640. 24318. 540. o
802 1 -1 4 -7 21640. 24318. 540. o
803 3 0 -4 8 21883. 26141. 1125. o
803 2 -1 4 7 21883. 26141. 1125. o
803 1 1 4 -7 21883. 26141. 1125. o
804 2 1 4 7 21640. 24183. 541. o
804 1 -1 4 -7 21640. 24183. 541. o
805 3 0 -4 8 21883. 25012. 783. o
805 2 -1 4 7 21883. 25012. 783. o
805 1 1 4 -7 21883. 25012. 783. o
806 2 -2 4 -7 2333. 383. 313. <
806 1 2 4 7 2333. 383. 313. <
807 2 -2 4 7 2328. 300. 282. <
807 1 2 4 -7 2328. 300. 282. <
808 2 -3 4 -7 1934. 2217. 279. o
808 1 3 4 7 1934. 2217. 279. o
809 2 -3 4 7 1934. 2114. 248. o
809 1 3 4 -7 1934. 2114. 248. o
810 2 -4 4 -7 3602. 1492. 376. o
810 1 4 4 7 3602. 1492. 376. o
811 2 -4 4 7 3604. 1865. 397. o
811 1 4 4 -7 3604. 1865. 397. o
812 2 -1 5 -7 2001. 1575. 239. o
812 1 1 5 7 2001. 1575. 239. o
813 3 0 -5 8 2020. 2010. 850. o
813 2 -1 5 7 2020. 2010. 850. o
813 1 1 5 -7 2020. 2010. 850. o
814 2 1 5 7 2010. 1243. 415. o
814 1 -1 5 -7 2010. 1243. 415. o
815 3 0 -5 8 2020. 943. 571. <
815 2 -1 5 7 2020. 943. 571. <
815 1 1 5 -7 2020. 943. 571. <
816 2 1 5 7 2010. 1492. 436. o
816 1 -1 5 -7 2010. 1492. 436. o
817 2 -2 5 -7 1618. 1938. 248. o
817 1 2 5 7 1618. 1938. 248. o
818 2 -2 5 7 1614. 2041. 269. o
818 1 2 5 -7 1614. 2041. 269. o
819 2 -3 5 -7 2946. 3937. 266. o
819 1 3 5 7 2946. 3937. 266. o
820 2 -3 5 7 2949. 3585. 257. o
820 1 3 5 -7 2949. 3585. 257. o
821 2 -4 5 -7 2426. 2373. 270. o
821 1 4 5 7 2426. 2373. 270. o
822 2 -4 5 7 2426. 2497. 248. o
822 1 4 5 -7 2426. 2497. 248. o
823 2 -5 5 -7 1795. 798. 353. o
823 1 5 5 7 1795. 798. 353. o
824 2 -5 5 7 1793. 933. 343. o
824 1 5 5 -7 1793. 933. 343. o
825 2 -1 6 -7 2420. 2880. 226. o
825 1 1 6 7 2420. 2880. 226. o
826 3 0 -6 8 2428. 3274. 838. o
826 2 -1 6 7 2428. 3274. 838. o
826 1 1 6 -7 2428. 3274. 838. o
827 2 1 6 7 2421. 2829. 320. o
827 1 -1 6 -7 2421. 2829. 320. o
828 3 0 -6 8 2428. 3139. 590. o
828 2 -1 6 7 2428. 3139. 590. o
828 1 1 6 -7 2428. 3139. 590. o
829 2 -2 6 -7 348. 83. 238. <
829 1 2 6 7 348. 83. 238. <
830 2 -2 6 7 347. 93. 259. <
830 1 2 6 -7 347. 93. 259. <
831 2 -3 6 -7 141. 477. 280. <
831 1 3 6 7 141. 477. 280. <
832 2 -3 6 7 142. 176. 238. <
832 1 3 6 -7 142. 176. 238. <
833 2 -4 6 -7 1199. 435. 249. <
833 1 4 6 7 1199. 435. 249. <
834 2 -4 6 7 1200. 528. 249. o
834 1 4 6 -7 1200. 528. 249. o
835 2 -5 6 -7 884. 1181. 248. o
835 1 5 6 7 884. 1181. 248. o
836 2 -5 6 7 884. 1046. 238. o
836 1 5 6 -7 884. 1046. 238. o
837 2 -6 6 -7 342. 829. 445. <
837 1 6 6 7 342. 829. 445. <
838 2 -6 6 7 343. 0. 383. <
838 1 6 6 -7 343. 0. 383. <
839 2 7 7 -7 1512. 1233. 549. o
839 1 -7 7 7 1512. 1233. 549. o
840 2 -7 7 7 1511. 1254. 498. o
840 1 7 7 -7 1511. 1254. 498. o
841 2 -1 7 -7 3586. 2145. 222. o
841 1 1 7 7 3586. 2145. 222. o
842 3 0 -7 8 3592. 3067. 726. o
842 2 -1 7 7 3592. 3067. 726. o
842 1 1 7 -7 3592. 3067. 726. o
843 2 1 7 7 3590. 1502. 335. o
843 1 -1 7 -7 3590. 1502. 335. o
844 3 0 -7 8 3592. 1264. 799. <
844 2 -1 7 7 3592. 1264. 799. <
844 1 1 7 -7 3592. 1264. 799. <
845 2 -2 7 -7 3198. 3999. 245. o
845 1 2 7 7 3198. 3999. 245. o
846 2 -2 7 7 3194. 3823. 278. o
846 1 2 7 -7 3194. 3823. 278. o
847 2 -3 7 -7 612. 560. 228. o
847 1 3 7 7 612. 560. 228. o
848 2 -3 7 7 614. 528. 259. o
848 1 3 7 -7 614. 528. 259. o
849 2 -4 7 -7 4692. 6434. 281. o
849 1 4 7 7 4692. 6434. 281. o
850 2 -4 7 7 4694. 5968. 230. o
850 1 4 7 -7 4694. 5968. 230. o
851 2 -5 7 -7 2666. 2756. 280. o
851 1 5 7 7 2666. 2756. 280. o
852 2 -5 7 7 2668. 2777. 259. o
852 1 5 7 -7 2668. 2777. 259. o
853 2 -6 7 -7 1370. 1399. 290. o
853 1 6 7 7 1370. 1399. 290. o
854 2 -6 7 7 1372. 1627. 269. o
854 1 6 7 -7 1372. 1627. 269. o
855 3 7 -7 7 1520. 518. 612. <
855 2 -7 7 -7 1520. 518. 612. <
855 1 7 7 7 1520. 518. 612. <
856 2 -7 7 7 1511. 787. 539. <
856 1 7 7 -7 1511. 787. 539. <
857 2 -1 8 -7 521. 819. 269. o
857 1 1 8 7 521. 819. 269. o
858 3 0 -8 8 618. 1647. 756. o
858 2 -1 8 7 618. 1647. 756. o
858 1 1 8 -7 618. 1647. 756. o
859 2 1 8 7 521. 984. 362. o
859 1 -1 8 -7 521. 984. 362. o
860 3 0 -8 8 618. -249. 560. <
860 2 -1 8 7 618. -249. 560. <
860 1 1 8 -7 618. -249. 560. <
861 2 1 8 7 521. 62. 756. <
861 1 -1 8 -7 521. 62. 756. <
862 2 -2 8 -7 132. -41. 238. <
862 1 2 8 7 132. -41. 238. <
863 2 -2 8 7 133. 394. 300. <
863 1 2 8 -7 133. 394. 300. <
864 2 -3 8 -7 319. 228. 228. <
864 1 3 8 7 319. 228. 228. <
865 2 -3 8 7 318. -31. 301. <
865 1 3 8 -7 318. -31. 301. <
866 2 -4 8 -7 115. 321. 280. <
866 1 4 8 7 115. 321. 280. <
867 2 -4 8 7 116. 487. 311. <
867 1 4 8 -7 116. 487. 311. <
868 2 -5 8 -7 77. 311. 311. <
868 1 5 8 7 77. 311. 311. <
869 2 -5 8 7 77. 746. 290. o
869 1 5 8 -7 77. 746. 290. o
870 2 -6 8 -7 73. 839. 310. o
870 1 6 8 7 73. 839. 310. o
871 2 -6 8 7 73. 1046. 289. o
871 1 6 8 -7 73. 1046. 289. o
872 2 -1 9 -7 1554. 1596. 290. o
872 1 1 9 7 1554. 1596. 290. o
873 2 1 9 7 1559. 1399. 901. <
873 1 -1 9 -7 1559. 1399. 901. <
874 3 0 -9 8 1570. 1388. 643. o
874 2 -1 9 7 1570. 1388. 643. o
874 1 1 9 -7 1570. 1388. 643. o
875 2 1 9 7 1559. 870. 974. <
875 1 -1 9 -7 1559. 870. 974. <
876 3 0 -9 8 1570. 1679. 901. <
876 2 -1 9 7 1570. 1679. 901. <
876 1 1 9 -7 1570. 1679. 901. <
877 2 1 9 7 1559. 943. 425. o
877 1 -1 9 -7 1559. 943. 425. o
878 2 -2 9 -7 917. 1554. 279. o
878 1 2 9 7 917. 1554. 279. o
879 2 -2 9 7 916. 1741. 310. o
879 1 2 9 -7 916. 1741. 310. o
880 2 -3 9 -7 1347. 1792. 248. o
880 1 3 9 7 1347. 1792. 248. o
881 2 -3 9 7 1350. 1627. 310. o
881 1 3 9 -7 1350. 1627. 310. o
882 2 -4 9 -7 1402. 2207. 278. o
882 1 4 9 7 1402. 2207. 278. o
883 2 -4 9 7 1401. 2331. 351. o
883 1 4 9 -7 1401. 2331. 351. o
884 2 -5 9 -7 288. 1160. 279. o
884 1 5 9 7 288. 1160. 279. o
885 2 -5 9 7 288. 974. 352. o
885 1 5 9 -7 288. 974. 352. o
886 2 -1 10 -7 1450. 3264. 296. o
886 1 1 10 7 1450. 3264. 296. o
887 3 0 -10 8 1451. 3036. 931. o
887 2 -1 10 7 1451. 3036. 931. o
887 1 1 10 -7 1451. 3036. 931. o
888 2 1 10 7 1450. 3171. 380. o
888 1 -1 10 -7 1450. 3171. 380. o
889 3 0 -10 8 1451. 3316. 921. o
889 2 -1 10 7 1451. 3316. 921. o
889 1 1 10 -7 1451. 3316. 921. o
890 2 1 10 7 1450. 3699. 806. o
890 1 -1 10 -7 1450. 3699. 806. o
891 2 -2 10 -7 506. 756. 290. o
891 1 2 10 7 506. 756. 290. o
892 2 -2 10 7 507. 870. 300. o
892 1 2 10 -7 507. 870. 300. o
893 2 -3 10 -7 363. 995. 310. o
893 1 3 10 7 363. 995. 310. o
894 2 -3 10 7 362. 1357. 331. o
894 1 3 10 -7 362. 1357. 331. o
895 3 -6 0 -22 17954. 26628. 550. o
895 2 8 0 -8 17954. 26628. 550. o
895 1 -8 0 8 17954. 26628. 550. o
896 2 0 0 -8 1085. 2860. 1191. o
896 1 0 0 8 1085. 2860. 1191. o
897 2 0 0 8 1096. 2362. 880. o
897 1 0 0 -8 1096. 2362. 880. o
898 2 -1 0 -8 1267. 539. 819. <
898 1 1 0 8 1267. 539. 819. <
899 2 -1 0 8 1276. 435. 819. <
899 1 1 0 -8 1276. 435. 819. <
900 2 -2 0 -8 36955. 46449. 842. o
900 1 2 0 8 36955. 46449. 842. o
901 2 -2 0 8 36950. 44719. 845. o
901 1 2 0 -8 36950. 44719. 845. o
902 2 -3 0 -8 16114. 14371. 643. o
902 1 3 0 8 16114. 14371. 643. o
903 2 -3 0 8 16116. 13760. 697. o
903 1 3 0 -8 16116. 13760. 697. o
904 2 -4 0 -8 44616. 54189. 666. o
904 1 4 0 8 44616. 54189. 666. o
905 2 -4 0 8 44609. 50729. 979. o
905 1 4 0 -8 44609. 50729. 979. o
906 2 -5 0 -8 1916. 539. 364. <
906 1 5 0 8 1916. 539. 364. <
907 2 -5 0 8 1905. 974. 850. <
907 1 5 0 -8 1905. 974. 850. <
908 2 -6 0 -8 1340. 4694. 375. o
908 1 6 0 8 1340. 4694. 375. o
909 2 -6 0 8 1339. 3917. 785. o
909 1 6 0 -8 1339. 3917. 785. o
910 2 -7 0 -8 322. 705. 383. <
910 1 7 0 8 322. 705. 383. <
911 2 -7 0 8 323. 705. 352. <
911 1 7 0 -8 323. 705. 352. <
912 3 -8 0 -8 18034. 27561. 421. o
912 2 8 0 8 18034. 27561. 421. o
912 1 -8 0 -8 18034. 27561. 421. o
913 2 -9 0 -8 2192. 1969. 415. o
913 1 9 0 8 2192. 1969. 415. o
914 2 -9 0 8 2191. 2632. 580. o
914 1 9 0 -8 2191. 2632. 580. o
915 2 -10 0 -8 278. 1098. 528. o
915 1 10 0 8 278. 1098. 528. o
916 2 -10 0 8 278. 187. 611. <
916 1 10 0 -8 278. 187. 611. <
917 3 1 -1 -7 1277. 249. 808. <
917 2 0 1 -8 1277. 249. 808. <
917 1 0 1 8 1277. 249. 808. <
918 3 -1 -1 7 1285. 601. 902. <
918 2 0 1 8 1285. 601. 902. <
918 1 0 1 -8 1285. 601. 902. <
919 2 -1 1 -8 5161. 3150. 501. o
919 1 1 1 8 5161. 3150. 501. o
920 2 -1 1 8 5172. 3844. 583. o
920 1 1 1 -8 5172. 3844. 583. o
921 3 1 -2 -7 37108. 45196. 1056. o
921 2 0 2 -8 37108. 45196. 1056. o
921 1 0 2 8 37108. 45196. 1056. o
922 3 -1 -2 7 37103. 42813. 1040. o
922 2 0 2 8 37103. 42813. 1040. o
922 1 0 2 -8 37103. 42813. 1040. o
923 2 -1 2 -8 10834. 9263. 374. o
923 1 1 2 8 10834. 9263. 374. o
924 2 -1 2 8 10827. 9460. 413. o
924 1 1 2 -8 10827. 9460. 413. o
925 2 -2 2 -8 27645. 24173. 600. o
925 1 2 2 8 27645. 24173. 600. o
926 2 -2 2 8 27666. 23489. 636. o
926 1 2 2 -8 27666. 23489. 636. o
927 3 1 -3 -7 16121. 13998. 726. o
927 2 0 3 -8 16121. 13998. 726. o
927 1 0 3 8 16121. 13998. 726. o
928 3 -1 -3 7 16124. 15179. 865. o
928 2 0 3 8 16124. 15179. 865. o
928 1 0 3 -8 16124. 15179. 865. o
929 2 -1 3 -8 1190. 1026. 301. o
929 1 1 3 8 1190. 1026. 301. o
930 2 -1 3 8 1194. 1078. 383. o
930 1 1 3 -8 1194. 1078. 383. o
931 2 -2 3 -8 970. -62. 321. <
931 1 2 3 8 970. -62. 321. <
932 2 -2 3 8 974. 207. 301. <
932 1 2 3 -8 974. 207. 301. <
933 2 -3 3 -8 25544. 12288. 588. o
933 1 3 3 8 25544. 12288. 588. o
934 2 -3 3 8 25560. 11688. 557. o
934 1 3 3 -8 25560. 11688. 557. o
935 3 1 -4 -7 44734. 46677. 746. o
935 2 0 4 -8 44734. 46677. 746. o
935 1 0 4 8 44734. 46677. 746. o
936 3 -1 -4 7 44728. 49040. 760. o
936 2 0 4 8 44728. 49040. 760. o
936 1 0 4 -8 44728. 49040. 760. o
937 2 -1 4 -8 1025. 1855. 268. o
937 1 1 4 8 1025. 1855. 268. o
938 2 -1 4 8 1026. 1948. 320. o
938 1 1 4 -8 1026. 1948. 320. o
939 2 -2 4 -8 1044. 1160. 269. o
939 1 2 4 8 1044. 1160. 269. o
940 2 -2 4 8 1041. 1295. 300. o
940 1 2 4 -8 1041. 1295. 300. o
941 2 -3 4 -8 2488. 1792. 260. o
941 1 3 4 8 2488. 1792. 260. o
942 2 -3 4 8 2483. 1855. 240. o
942 1 3 4 -8 2483. 1855. 240. o
943 2 -4 4 -8 22742. 23541. 424. o
943 1 4 4 8 22742. 23541. 424. o
944 2 -4 4 8 22766. 22784. 435. o
944 1 4 4 -8 22766. 22784. 435. o
945 3 1 -5 -7 1926. 207. 488. <
945 2 0 5 -8 1926. 207. 488. <
945 1 0 5 8 1926. 207. 488. <
946 3 -1 -5 7 1916. 21. 581. <
946 2 0 5 8 1916. 21. 581. <
946 1 0 5 -8 1916. 21. 581. <
947 2 -1 5 -8 4806. 2642. 246. o
947 1 1 5 8 4806. 2642. 246. o
948 2 -1 5 8 4806. 2611. 297. o
948 1 1 5 -8 4806. 2611. 297. o
949 2 -2 5 -8 2471. 3854. 244. o
949 1 2 5 8 2471. 3854. 244. o
950 2 -2 5 8 2471. 3689. 234. o
950 1 2 5 -8 2471. 3689. 234. o
951 2 -3 5 -8 4798. 3150. 275. o
951 1 3 5 8 4798. 3150. 275. o
952 2 -3 5 8 4798. 2673. 256. o
952 1 3 5 -8 4798. 2673. 256. o
953 2 -4 5 -8 1685. 1440. 259. o
953 1 4 5 8 1685. 1440. 259. o
954 2 -4 5 8 1685. 1803. 259. o
954 1 4 5 -8 1685. 1803. 259. o
955 2 -5 5 -8 8165. 5678. 415. o
955 1 5 5 8 8165. 5678. 415. o
956 2 -5 5 8 8167. 4797. 397. o
956 1 5 5 -8 8167. 4797. 397. o
957 3 1 -6 -7 1353. 5098. 511. o
957 2 0 6 -8 1353. 5098. 511. o
957 1 0 6 8 1353. 5098. 511. o
958 3 -1 -6 7 1352. 4217. 524. o
958 2 0 6 8 1352. 4217. 524. o
958 1 0 6 -8 1352. 4217. 524. o
959 2 -1 6 -8 1070. 642. 228. o
959 1 1 6 8 1070. 642. 228. o
960 2 -1 6 8 1069. 383. 280. <
960 1 1 6 -8 1069. 383. 280. <
961 2 -2 6 -8 28980. 37093. 715. o
961 1 2 6 8 28980. 37093. 715. o
962 2 -2 6 8 28980. 37964. 735. o
962 1 2 6 -8 28980. 37964. 735. o
963 2 -3 6 -8 5952. 4984. 295. o
963 1 3 6 8 5952. 4984. 295. o
964 2 -3 6 8 5952. 4890. 255. o
964 1 3 6 -8 5952. 4890. 255. o
965 2 -4 6 -8 1519. 1357. 259. o
965 1 4 6 8 1519. 1357. 259. o
966 2 -4 6 8 1518. 1772. 238. o
966 1 4 6 -8 1518. 1772. 238. o
967 2 -5 6 -8 1696. 0. 270. <
967 1 5 6 8 1696. 0. 270. <
968 2 -5 6 8 1698. 414. 260. <
968 1 5 6 -8 1698. 414. 260. <
969 2 -6 6 -8 2486. 1316. 374. o
969 1 6 6 8 2486. 1316. 374. o
970 2 -6 6 8 2482. 1181. 395. o
970 1 6 6 -8 2482. 1181. 395. o
971 3 1 -7 -7 341. 1192. 528. o
971 2 0 7 -8 341. 1192. 528. o
971 1 0 7 8 341. 1192. 528. o
972 3 -1 -7 7 342. 539. 570. <
972 2 0 7 8 342. 539. 570. <
972 1 0 7 -8 342. 539. 570. <
973 2 -1 7 -8 219. 466. 207. o
973 1 1 7 8 219. 466. 207. o
974 2 -1 7 8 219. 207. 269. <
974 1 1 7 -8 219. 207. 269. <
975 2 -2 7 -8 906. 591. 239. o
975 1 2 7 8 906. 591. 239. o
976 2 -2 7 8 907. 1306. 248. o
976 1 2 7 -8 907. 1306. 248. o
977 2 -3 7 -8 1212. 311. 260. <
977 1 3 7 8 1212. 311. 260. <
978 2 -3 7 8 1210. 964. 259. o
978 1 3 7 -8 1210. 964. 259. o
979 2 -4 7 -8 115. 653. 259. o
979 1 4 7 8 115. 653. 259. o
980 2 -4 7 8 115. 456. 259. <
980 1 4 7 -8 115. 456. 259. <
981 2 -5 7 -8 52. 83. 280. <
981 1 5 7 8 52. 83. 280. <
982 2 -5 7 8 52. 259. 269. <
982 1 5 7 -8 52. 259. 269. <
983 2 -6 7 -8 961. 1181. 280. o
983 1 6 7 8 961. 1181. 280. o
984 2 -6 7 8 959. 1772. 289. o
984 1 6 7 -8 959. 1772. 289. o
985 2 -7 7 -8 467. 1140. 445. o
985 1 7 7 8 467. 1140. 445. o
986 2 -7 7 8 466. 1067. 383. o
986 1 7 7 -8 466. 1067. 383. o
987 3 1 -8 -7 17940. 30721. 588. o
987 2 0 8 -8 17940. 30721. 588. o
987 1 0 8 8 17940. 30721. 588. o
988 3 -1 -8 7 17938. 30576. 565. o
988 2 0 8 8 17938. 30576. 565. o
988 1 0 8 -8 17938. 30576. 565. o
989 2 -1 8 -8 1149. 1834. 258. o
989 1 1 8 8 1149. 1834. 258. o
990 2 -1 8 8 1149. 2155. 299. o
990 1 1 8 -8 1149. 2155. 299. o
991 2 -2 8 -8 407. 1026. 248. o
991 1 2 8 8 407. 1026. 248. o
992 2 -2 8 8 408. 725. 300. o
992 1 2 8 -8 408. 725. 300. o
993 2 -3 8 -8 1838. 207. 250. <
993 1 3 8 8 1838. 207. 250. <
994 2 -3 8 8 1839. 363. 322. <
994 1 3 8 -8 1839. 363. 322. <
995 2 -4 8 -8 3731. 3150. 292. o
995 1 4 8 8 3731. 3150. 292. o
996 2 -4 8 8 3731. 3637. 280. o
996 1 4 8 -8 3731. 3637. 280. o
997 2 -5 8 -8 2580. 2166. 312. o
997 1 5 8 8 2580. 2166. 312. o
998 2 -5 8 8 2580. 2362. 332. o
998 1 5 8 -8 2580. 2362. 332. o
999 2 -6 8 -8 2473. 3191. 319. o
999 1 6 8 8 2473. 3191. 319. o
1000 2 -6 8 8 2474. 3865. 307. o
1000 1 6 8 -8 2474. 3865. 307. o
1001 3 1 -9 -7 2201. 2684. 590. o
1001 2 0 9 -8 2201. 2684. 590. o
1001 1 0 9 8 2201. 2684. 590. o
1002 3 -1 -9 7 2199. 2020. 560. o
1002 2 0 9 8 2199. 2020. 560. o
1002 1 0 9 -8 2199. 2020. 560. o
1003 2 -1 9 -8 3. 363. 280. <
1003 1 1 9 8 3. 363. 280. <
1004 2 -1 9 8 3. 352. 290. <
1004 1 1 9 -8 3. 352. 290. <
1005 2 -2 9 -8 231. 487. 269. <
1005 1 2 9 8 231. 487. 269. <
1006 2 -2 9 8 230. 1026. 331. o
1006 1 2 9 -8 230. 1026. 331. o
1007 2 -3 9 -8 1209. 995. 249. o
1007 1 3 9 8 1209. 995. 249. o
1008 2 -3 9 8 1211. 1088. 332. o
1008 1 3 9 -8 1211. 1088. 332. o
1009 2 -4 9 -8 381. 1078. 279. o
1009 1 4 9 8 381. 1078. 279. o
1010 2 -4 9 8 381. 974. 310. o
1010 1 4 9 -8 381. 974. 310. o
1011 2 -5 9 -8 23. 1119. 279. o
1011 1 5 9 8 23. 1119. 279. o
1012 2 -5 9 8 23. 933. 331. o
1012 1 5 9 -8 23. 933. 331. o
1013 3 1 -10 -7 286. 1036. 601. <
1013 2 0 10 -8 286. 1036. 601. <
1013 1 0 10 8 286. 1036. 601. <
1014 3 -1 -10 7 286. 1378. 642. o
1014 2 0 10 8 286. 1378. 642. o
1014 1 0 10 -8 286. 1378. 642. o
1015 2 -1 10 -8 65. 756. 300. o
1015 1 1 10 8 65. 756. 300. o
1016 2 -1 10 8 65. 850. 310. o
1016 1 1 10 -8 65. 850. 310. o
1017 2 -2 10 -8 3166. 3999. 277. o
1017 1 2 10 8 3166. 3999. 277. o
1018 2 -2 10 8 3168. 4176. 318. o
1018 1 2 10 -8 3168. 4176. 318. o
1019 2 -3 10 -8 591. 1067. 290. o
1019 1 3 10 8 591. 1067. 290. o
1020 2 -3 10 8 591. 1337. 331. o
1020 1 3 10 -8 591. 1337. 331. o
1021 2 1 1 -9 15481. 10050. 709. o
1021 1 -1 1 9 15481. 10050. 709. o
1022 2 -1 1 9 15476. 10226. 798. o
1022 1 1 1 -9 15476. 10226. 798. o
1023 3 2 -1 -6 15582. 9988. 870. o
1023 2 -1 1 -9 15582. 9988. 870. o
1023 1 1 1 9 15582. 9988. 870. o
1024 2 -1 1 9 15476. 9418. 952. o
1024 1 1 1 -9 15476. 9418. 952. o
1025 2 1 2 -9 17898. 14081. 394. o
1025 1 -1 2 9 17898. 14081. 394. o
1026 2 -1 2 9 17906. 15013. 571. o
1026 1 1 2 -9 17906. 15013. 571. o
1027 3 2 -2 -6 18825. 14900. 910. o
1027 2 -1 2 -9 18825. 14900. 910. o
1027 1 1 2 9 18825. 14900. 910. o
1028 2 -1 2 9 17906. 14682. 916. o
1028 1 1 2 -9 17906. 14682. 916. o
1029 2 -2 2 -9 5053. 1772. 543. o
1029 1 2 2 9 5053. 1772. 543. o
1030 2 -2 2 9 5034. 1357. 574. o
1030 1 2 2 -9 5034. 1357. 574. o
1031 2 1 3 -9 52992. 57971. 313. o
1031 1 -1 3 9 52992. 57971. 313. o
1032 2 -1 3 9 53006. 57629. 472. o
1032 1 1 3 -9 53006. 57629. 472. o
1033 3 2 -3 -6 53125. 55920. 1210. o
1033 2 -1 3 -9 53125. 55920. 1210. o
1033 1 1 3 9 53125. 55920. 1210. o
1034 2 -1 3 9 53006. 52397. 1240. o
1034 1 1 3 -9 53006. 52397. 1240. o
1035 2 -2 3 -9 5090. 4455. 293. o
1035 1 2 3 9 5090. 4455. 293. o
1036 2 -2 3 9 5097. 4404. 314. o
1036 1 2 3 -9 5097. 4404. 314. o
1037 2 -3 3 -9 41586. 38710. 602. o
1037 1 3 3 9 41586. 38710. 602. o
1038 2 -3 3 9 41579. 37487. 585. o
1038 1 3 3 -9 41579. 37487. 585. o
1039 2 1 4 -9 16687. 16806. 330. o
1039 1 -1 4 9 16687. 16806. 330. o
1040 2 -1 4 9 16684. 17065. 400. o
1040 1 1 4 -9 16684. 17065. 400. o
1041 3 2 -4 -6 17048. 16796. 737. o
1041 2 -1 4 -9 17048. 16796. 737. o
1041 1 1 4 9 17048. 16796. 737. o
1042 2 -1 4 9 16684. 16288. 655. o
1042 1 1 4 -9 16684. 16288. 655. o
1043 2 -2 4 -9 8286. 4186. 310. o
1043 1 2 4 9 8286. 4186. 310. o
1044 2 -2 4 9 8282. 4020. 311. o
1044 1 2 4 -9 8282. 4020. 311. o
1045 2 -3 4 -9 3017. 3927. 277. o
1045 1 3 4 9 3017. 3927. 277. o
1046 2 -3 4 9 3017. 4041. 266. o
1046 1 3 4 -9 3017. 4041. 266. o
1047 2 -4 4 -9 8901. 4590. 471. o
1047 1 4 4 9 8901. 4590. 471. o
1048 2 -4 4 9 8899. 4549. 391. o
1048 1 4 4 -9 8899. 4549. 391. o
1049 2 1 5 -9 45372. 55236. 1066. o
1049 1 -1 5 9 45372. 55236. 1066. o
1050 2 -1 5 9 45395. 54904. 1069. o
1050 1 1 5 -9 45395. 54904. 1069. o
1051 3 2 -5 -6 45386. 54645. 658. o
1051 2 -1 5 -9 45386. 54645. 658. o
1051 1 1 5 9 45386. 54645. 658. o
1052 2 -1 5 9 45395. 52967. 683. o
1052 1 1 5 -9 45395. 52967. 683. o
1053 2 -2 5 -9 919. 508. 249. o
1053 1 2 5 9 919. 508. 249. o
1054 2 -2 5 9 921. 497. 239. o
1054 1 2 5 -9 921. 497. 239. o
1055 2 -3 5 -9 34627. 34316. 350. o
1055 1 3 5 9 34627. 34316. 350. o
1056 2 -3 5 9 34626. 34306. 361. o
1056 1 3 5 -9 34626. 34306. 361. o
1057 2 -4 5 -9 926. 404. 290. <
1057 1 4 5 9 926. 404. 290. <
1058 2 -4 5 9 927. 352. 259. <
1058 1 4 5 -9 927. 352. 259. <
1059 2 -5 5 -9 5199. 4176. 448. o
1059 1 5 5 9 5199. 4176. 448. o
1060 2 -5 5 9 5198. 4414. 345. o
1060 1 5 5 -9 5198. 4414. 345. o
1061 2 1 6 -9 4144. 4683. 236. o
1061 1 -1 6 9 4144. 4683. 236. o
1062 2 -1 6 9 4144. 5015. 307. o
1062 1 1 6 -9 4144. 5015. 307. o
1063 3 2 -6 -6 5042. 5326. 580. o
1063 2 -1 6 -9 5042. 5326. 580. o
1063 1 1 6 9 5042. 5326. 580. o
1064 2 -1 6 9 4144. 4600. 579. o
1064 1 1 6 -9 4144. 4600. 579. o
1065 2 -2 6 -9 878. 394. 249. <
1065 1 2 6 9 878. 394. 249. <
1066 2 -2 6 9 879. 850. 290. o
1066 1 2 6 -9 879. 850. 290. o
1067 2 -3 6 -9 2462. 2217. 239. o
1067 1 3 6 9 2462. 2217. 239. o
1068 2 -3 6 9 2463. 2435. 269. o
1068 1 3 6 -9 2463. 2435. 269. o
1069 2 -4 6 -9 2821. 2352. 260. o
1069 1 4 6 9 2821. 2352. 260. o
1070 2 -4 6 9 2821. 2062. 261. o
1070 1 4 6 -9 2821. 2062. 261. o
1071 2 -5 6 -9 121. -41. 269. <
1071 1 5 6 9 121. -41. 269. <
1072 2 -5 6 9 121. 363. 249. <
1072 1 5 6 -9 121. 363. 249. <
1073 2 -6 6 -9 330. -135. 373. <
1073 1 6 6 9 330. -135. 373. <
1074 2 -6 6 9 330. 891. 352. o
1074 1 6 6 -9 330. 891. 352. o
1075 2 1 7 -9 27164. 35840. 682. o
1075 1 -1 7 9 27164. 35840. 682. o
1076 2 -1 7 9 27180. 35373. 171. o
1076 1 1 7 -9 27180. 35373. 171. o
1077 3 2 -7 -6 27183. 38295. 580. o
1077 2 -1 7 -9 27183. 38295. 580. o
1077 1 1 7 9 27183. 38295. 580. o
1078 2 -1 7 9 27180. 38316. 592. o
1078 1 1 7 -9 27180. 38316. 592. o
1079 2 -2 7 -9 1366. 1171. 259. o
1079 1 2 7 9 1366. 1171. 259. o
1080 2 -2 7 9 1365. 756. 270. o
1080 1 2 7 -9 1365. 756. 270. o
1081 2 -3 7 -9 8101. 10910. 252. o
1081 1 3 7 9 8101. 10910. 252. o
1082 2 -3 7 9 8105. 10320. 281. o
1082 1 3 7 -9 8105. 10320. 281. o
1083 2 -4 7 -9 3122. 1647. 262. o
1083 1 4 7 9 3122. 1647. 262. o
1084 2 -4 7 9 3122. 1658. 293. o
1084 1 4 7 -9 3122. 1658. 293. o
1085 2 -5 7 -9 5484. 3699. 277. o
1085 1 5 7 9 5484. 3699. 277. o
1086 2 -5 7 9 5486. 3803. 266. o
1086 1 5 7 -9 5486. 3803. 266. o
1087 2 -6 7 -9 293. 694. 321. o
1087 1 6 7 9 293. 694. 321. o
1088 2 -6 7 9 293. 673. 259. o
1088 1 6 7 -9 293. 673. 259. o
1089 2 -7 7 -9 427. 756. 414. <
1089 1 7 7 9 427. 756. 414. <
1090 3 5 -7 21 454. 1668. 911. <
1090 2 -7 7 9 454. 1668. 911. <
1090 1 7 7 -9 454. 1668. 911. <
1091 2 7 7 9 424. 549. 756. <
1091 1 -7 7 -9 424. 549. 756. <
1092 3 5 -7 21 454. 487. 632. <
1092 2 -7 7 9 454. 487. 632. <
1092 1 7 7 -9 454. 487. 632. <
1093 2 7 7 9 424. -41. 715. <
1093 1 -7 7 -9 424. -41. 715. <
1094 2 1 8 -9 491. 332. 259. <
1094 1 -1 8 9 491. 332. 259. <
1095 2 -1 8 9 493. 725. 331. o
1095 1 1 8 -9 493. 725. 331. o
1096 3 2 -8 -6 509. 446. 487. <
1096 2 -1 8 -9 509. 446. 487. <
1096 1 1 8 9 509. 446. 487. <
1097 2 -1 8 9 493. 684. 591. <
1097 1 1 8 -9 493. 684. 591. <
1098 2 -2 8 -9 156. 363. 238. <
1098 1 2 8 9 156. 363. 238. <
1099 2 -2 8 9 157. -62. 290. <
1099 1 2 8 -9 157. -62. 290. <
1100 2 -3 8 -9 240. 839. 248. o
1100 1 3 8 9 240. 839. 248. o
1101 2 -3 8 9 241. 352. 311. <
1101 1 3 8 -9 241. 352. 311. <
1102 2 -4 8 -9 211. 787. 269. o
1102 1 4 8 9 211. 787. 269. o
1103 2 -4 8 9 211. 611. 311. <
1103 1 4 8 -9 211. 611. 311. <
1104 2 -5 8 -9 846. 798. 280. o
1104 1 5 8 9 846. 798. 280. o
1105 2 -5 8 9 847. 1046. 321. o
1105 1 5 8 -9 847. 1046. 321. o
1106 2 -6 8 -9 55. 1088. 310. o
1106 1 6 8 9 55. 1088. 310. o
1107 2 -6 8 9 55. 1751. 330. o
1107 1 6 8 -9 55. 1751. 330. o
1108 2 1 9 -9 7335. 9947. 312. o
1108 1 -1 9 9 7335. 9947. 312. o
1109 2 -1 9 9 7340. 9729. 325. o
1109 1 1 9 -9 7340. 9729. 325. o
1110 3 2 -9 -6 7349. 10558. 619. o
1110 2 -1 9 -9 7349. 10558. 619. o
1110 1 1 9 9 7349. 10558. 619. o
1111 2 -1 9 9 7340. 11128. 616. o
1111 1 1 9 -9 7340. 11128. 616. o
1112 2 -2 9 -9 610. 1140. 259. o
1112 1 2 9 9 610. 1140. 259. o
1113 2 -2 9 9 609. 1057. 300. o
1113 1 2 9 -9 609. 1057. 300. o
1114 2 -3 9 -9 6127. 6351. 278. o
1114 1 3 9 9 6127. 6351. 278. o
1115 2 -3 9 9 6129. 6590. 340. o
1115 1 3 9 -9 6129. 6590. 340. o
1116 2 -4 9 -9 480. 632. 249. o
1116 1 4 9 9 480. 632. 249. o
1117 2 -4 9 9 480. 1088. 331. o
1117 1 4 9 -9 480. 1088. 331. o
1118 2 -5 9 -9 170. 1440. 299. o
1118 1 5 9 9 170. 1440. 299. o
1119 2 -5 9 9 170. 860. 331. o
1119 1 5 9 -9 170. 860. 331. o
1120 2 1 10 -9 391. 1005. 352. o
1120 1 -1 10 9 391. 1005. 352. o
1121 2 -1 10 9 392. 1088. 321. o
1121 1 1 10 -9 392. 1088. 321. o
1122 3 2 -10 -6 532. -249. 601. <
1122 2 -1 10 -9 532. -249. 601. <
1122 1 1 10 9 532. -249. 601. <
1123 2 -1 10 9 392. 601. 622. <
1123 1 1 10 -9 392. 601. 622. <
1124 2 -2 10 -9 666. 1160. 290. o
1124 1 2 10 9 666. 1160. 290. o
1125 2 -2 10 9 666. 1160. 310. o
1125 1 2 10 -9 666. 1160. 310. o
1126 2 -3 10 -9 213. 1181. 269. o
1126 1 3 10 9 213. 1181. 269. o
1127 2 -3 10 9 214. 756. 311. o
1127 1 3 10 -9 214. 756. 311. o
1128 2 0 1 -10 144991. 157843. 520. o
1128 1 0 1 10 144991. 157843. 520. o
1129 2 0 1 10 144967. 144881. 1101. o
1129 1 0 1 -10 144967. 144881. 1101. o
1130 2 -1 1 -10 13198. 12081. 607. o
1130 1 1 1 10 13198. 12081. 607. o
1131 2 -1 1 10 13207. 11159. 612. o
1131 1 1 1 -10 13207. 11159. 612. o
1132 2 2 2 -10 656367. 802115. 14254. o
1132 1 -2 2 10 656367. 802115. 14254. o
1133 2 -2 2 10 656264. 774761. 14288. o
1133 1 2 2 -10 656264. 774761. 14288. o
1134 2 0 2 -10 4299. 1938. 470. o
1134 1 0 2 10 4299. 1938. 470. o
1135 2 0 2 10 4343. 1865. 491. o
1135 1 0 2 -10 4343. 1865. 491. o
1136 2 -1 2 -10 12842. 20940. 276. o
1136 1 1 2 10 12842. 20940. 276. o
1137 2 -1 2 10 12855. 21510. 501. o
1137 1 1 2 -10 12855. 21510. 501. o
1138 3 3 -2 -5 656370. 693467. 13724. o
1138 2 -2 2 -10 656370. 693467. 13724. o
1138 1 2 2 10 656370. 693467. 13724. o
1139 2 -2 2 10 656264. 733658. 14021. o
1139 1 2 2 -10 656264. 733658. 14021. o
1140 2 2 3 -10 123552. 131080. 2599. o
1140 1 -2 3 10 123552. 131080. 2599. o
1141 2 -2 3 10 123540. 128324. 467. o
1141 1 2 3 -10 123540. 128324. 467. o
1142 2 0 3 -10 3272. 901. 469. <
1142 1 0 3 10 3272. 901. 469. <
1143 2 0 3 10 3275. 684. 417. <
1143 1 0 3 -10 3275. 684. 417. <
1144 2 -1 3 -10 10102. 8631. 332. o
1144 1 1 3 10 10102. 8631. 332. o
1145 2 -1 3 10 10102. 8216. 415. o
1145 1 1 3 -10 10102. 8216. 415. o
1146 3 3 -3 -5 123621. 141172. 1087. o
1146 2 -2 3 -10 123621. 141172. 1087. o
1146 1 2 3 10 123621. 141172. 1087. o
1147 2 -2 3 10 123540. 114253. 1919. o
1147 1 2 3 -10 123540. 114253. 1919. o
1148 2 -3 3 -10 6492. 4113. 452. o
1148 1 3 3 10 6492. 4113. 452. o
1149 2 -3 3 10 6497. 3616. 392. o
1149 1 3 3 -10 6497. 3616. 392. o
1150 2 2 4 -10 8408. 9242. 283. o
1150 1 -2 4 10 8408. 9242. 283. o
1151 2 -2 4 10 8440. 10019. 341. o
1151 1 2 4 -10 8440. 10019. 341. o
1152 2 0 4 -10 433278. 487662. 9139. o
1152 1 0 4 10 433278. 487662. 9139. o
1153 2 0 4 10 433234. 479404. 9089. o
1153 1 0 4 -10 433234. 479404. 9089. o
1154 2 -1 4 -10 34078. 35145. 334. o
1154 1 1 4 10 34078. 35145. 334. o
1155 2 -1 4 10 34063. 35228. 410. o
1155 1 1 4 -10 34063. 35228. 410. o
1156 3 3 -4 -5 8418. 9760. 679. o
1156 2 -2 4 -10 8418. 9760. 679. o
1156 1 2 4 10 8418. 9760. 679. o
1157 2 -2 4 10 8440. 8735. 672. o
1157 1 2 4 -10 8440. 8735. 672. o
1158 2 -3 4 -10 12385. 15853. 276. o
1158 1 3 4 10 12385. 15853. 276. o
1159 2 -3 4 10 12393. 14754. 293. o
1159 1 3 4 -10 12393. 14754. 293. o
1160 2 -4 4 -10 225740. 247903. 4759. o
1160 1 4 4 10 225740. 247903. 4759. o
1161 2 -4 4 10 225666. 235925. 4674. o
1161 1 4 4 -10 225666. 235925. 4674. o
1162 2 2 5 -10 902. 829. 280. o
1162 1 -2 5 10 902. 829. 280. o
1163 2 -2 5 10 902. 591. 290. o
1163 1 2 5 -10 902. 591. 290. o
1164 2 0 5 -10 86498. 95199. 1880. o
1164 1 0 5 10 86498. 95199. 1880. o
1165 2 0 5 10 86514. 95655. 520. o
1165 1 0 5 -10 86514. 95655. 520. o
1166 2 -1 5 -10 3940. 3854. 249. o
1166 1 1 5 10 3940. 3854. 249. o
1167 2 -1 5 10 3940. 3834. 301. o
1167 1 1 5 -10 3940. 3834. 301. o
1168 3 3 -5 -5 1099. 746. 591. <
1168 2 -2 5 -10 1099. 746. 591. <
1168 1 2 5 10 1099. 746. 591. <
1169 2 -2 5 10 902. 446. 539. <
1169 1 2 5 -10 902. 446. 539. <
1170 2 -3 5 -10 9349. 6673. 289. o
1170 1 3 5 10 9349. 6673. 289. o
1171 2 -3 5 10 9349. 6890. 317. o
1171 1 3 5 -10 9349. 6890. 317. o
1172 2 -4 5 -10 17236. 19324. 310. o
1172 1 4 5 10 17236. 19324. 310. o
1173 2 -4 5 10 17235. 18205. 306. o
1173 1 4 5 -10 17235. 18205. 306. o
1174 2 -5 5 -10 1900. 1171. 394. o
1174 1 5 5 10 1900. 1171. 394. o
1175 2 -5 5 10 1895. 1192. 353. o
1175 1 5 5 -10 1895. 1192. 353. o
1176 2 2 6 -10 164454. 164412. 583. o
1176 1 -2 6 10 164454. 164412. 583. o
1177 2 -2 6 10 164454. 166049. 521. o
1177 1 2 6 -10 164454. 166049. 521. o
1178 2 0 6 -10 11648. 8962. 342. o
1178 1 0 6 10 11648. 8962. 342. o
1179 2 0 6 10 11681. 8444. 504. o
1179 1 0 6 -10 11681. 8444. 504. o
1180 2 -1 6 -10 19241. 21033. 254. o
1180 1 1 6 10 19241. 21033. 254. o
1181 2 -1 6 10 19249. 21810. 309. o
1181 1 1 6 -10 19249. 21810. 309. o
1182 3 3 -6 -5 164455. 172732. 935. o
1182 2 -2 6 -10 164455. 172732. 935. o
1182 1 2 6 10 164455. 172732. 935. o
1183 2 -2 6 10 164454. 167292. 1171. o
1183 1 2 6 -10 164454. 167292. 1171. o
1184 2 -3 6 -10 3375. 1948. 252. o
1184 1 3 6 10 3375. 1948. 252. o
1185 2 -3 6 10 3374. 1513. 284. o
1185 1 3 6 -10 3374. 1513. 284. o
1186 2 -4 6 -10 4645. 4549. 280. o
1186 1 4 6 10 4645. 4549. 280. o
1187 2 -4 6 10 4649. 4372. 281. o
1187 1 4 6 -10 4649. 4372. 281. o
1188 2 -5 6 -10 12998. 13666. 292. o
1188 1 5 6 10 12998. 13666. 292. o
1189 2 -5 6 10 12992. 13273. 308. o
1189 1 5 6 -10 12992. 13273. 308. o
1190 2 -6 6 -10 66175. 62654. 685. o
1190 1 6 6 10 66175. 62654. 685. o
1191 3 4 -6 20 66177. 74145. 1103. o
1191 2 -6 6 10 66177. 74145. 1103. o
1191 1 6 6 -10 66177. 74145. 1103. o
1192 2 6 6 10 66167. 65410. 1069. o
1192 1 -6 6 -10 66167. 65410. 1069. o
1193 3 4 -6 20 66177. 58489. 1264. o
1193 2 -6 6 10 66177. 58489. 1264. o
1193 1 6 6 -10 66177. 58489. 1264. o
1194 2 6 6 10 66167. 63670. 1097. o
1194 1 -6 6 -10 66167. 63670. 1097. o
1195 2 2 7 -10 17168. 16827. 316. o
1195 1 -2 7 10 17168. 16827. 316. o
1196 2 -2 7 10 17160. 17324. 392. o
1196 1 2 7 -10 17160. 17324. 392. o
1197 2 0 7 -10 2288. 2052. 353. o
1197 1 0 7 10 2288. 2052. 353. o
1198 2 0 7 10 2289. 2020. 425. o
1198 1 0 7 -10 2289. 2020. 425. o
1199 2 -1 7 -10 2333. 2684. 237. o
1199 1 1 7 10 2333. 2684. 237. o
1200 2 -1 7 10 2331. 2466. 300. o
1200 1 1 7 -10 2331. 2466. 300. o
1201 3 3 -7 -5 17224. 18609. 695. o
1201 2 -2 7 -10 17224. 18609. 695. o
1201 1 2 7 10 17224. 18609. 695. o
1202 2 -2 7 10 17160. 17749. 701. o
1202 1 2 7 -10 17160. 17749. 701. o
1203 2 -3 7 -10 1397. 1523. 259. o
1203 1 3 7 10 1397. 1523. 259. o
1204 2 -3 7 10 1398. 1865. 258. o
1204 1 3 7 -10 1398. 1865. 258. o
1205 2 -4 7 -10 3339. 2435. 282. o
1205 1 4 7 10 3339. 2435. 282. o
1206 2 -4 7 10 3344. 2456. 303. o
1206 1 4 7 -10 3344. 2456. 303. o
1207 2 -5 7 -10 2186. 1938. 301. o
1207 1 5 7 10 2186. 1938. 301. o
1208 2 -5 7 10 2186. 2601. 300. o
1208 1 5 7 -10 2186. 2601. 300. o
1209 2 -6 7 -10 3380. 2414. 344. o
1209 1 6 7 10 3380. 2414. 344. o
1210 2 6 7 10 3381. 2673. 333. o
1210 1 -6 7 -10 3381. 2673. 333. o
1211 3 4 -7 20 3388. 2725. 685. o
1211 2 -6 7 10 3388. 2725. 685. o
1211 1 6 7 -10 3388. 2725. 685. o
1212 2 -7 7 -10 497. 1533. 466. o
1212 1 7 7 10 497. 1533. 466. o
1213 2 -7 7 10 498. 1544. 403. o
1213 1 7 7 -10 498. 1544. 403. o
1214 2 2 8 -10 6091. 4673. 297. o
1214 1 -2 8 10 6091. 4673. 297. o
1215 2 -2 8 10 6105. 4549. 338. o
1215 1 2 8 -10 6105. 4549. 338. o
1216 2 0 8 -10 72132. 66747. 730. o
1216 1 0 8 10 72132. 66747. 730. o
1217 2 0 8 10 72143. 68073. 715. o
1217 1 0 8 -10 72143. 68073. 715. o
1218 2 -1 8 -10 3080. 1948. 251. o
1218 1 1 8 10 3080. 1948. 251. o
1219 2 -1 8 10 3078. 1679. 283. o
1219 1 1 8 -10 3078. 1679. 283. o
1220 3 3 -8 -5 6091. 5668. 623. o
1220 2 -2 8 -10 6091. 5668. 623. o
1220 1 2 8 10 6091. 5668. 623. o
1221 2 -2 8 10 6105. 4642. 573. o
1221 1 2 8 -10 6105. 4642. 573. o
1222 2 -3 8 -10 12154. 15148. 260. o
1222 1 3 8 10 12154. 15148. 260. o
1223 2 -3 8 10 12156. 15335. 339. o
1223 1 3 8 -10 12156. 15335. 339. o
1224 2 -4 8 -10 47639. 47828. 377. o
1224 1 4 8 10 47639. 47828. 377. o
1225 2 -4 8 10 47631. 47858. 418. o
1225 1 4 8 -10 47631. 47858. 418. o
1226 2 -5 8 -10 689. 995. 311. o
1226 1 5 8 10 689. 995. 311. o
1227 2 -5 8 10 689. 953. 311. o
1227 1 5 8 -10 689. 953. 311. o
1228 2 -6 8 -10 2147. 933. 312. o
1228 1 6 8 10 2147. 933. 312. o
1229 2 6 8 10 2142. 1679. 974. <
1229 1 -6 8 -10 2142. 1679. 974. <
1230 3 4 -8 20 2200. 1658. 819. o
1230 2 -6 8 10 2200. 1658. 819. o
1230 1 6 8 -10 2200. 1658. 819. o
1231 2 6 8 10 2142. 1451. 436. o
1231 1 -6 8 -10 2142. 1451. 436. o
1232 3 4 -8 20 2200. 1958. 788. o
1232 2 -6 8 10 2200. 1958. 788. o
1232 1 6 8 -10 2200. 1958. 788. o
1233 2 6 8 10 2142. 2704. 911. o
1233 1 -6 8 -10 2142. 2704. 911. o
1234 2 2 9 -10 2970. 3471. 309. o
1234 1 -2 9 10 2970. 3471. 309. o
1235 2 -2 9 10 2975. 3668. 403. o
1235 1 2 9 -10 2975. 3668. 403. o
1236 2 0 9 -10 2860. 1834. 375. o
1236 1 0 9 10 2860. 1834. 375. o
1237 2 0 9 10 2858. 1606. 447. o
1237 1 0 9 -10 2858. 1606. 447. o
1238 2 -1 9 -10 1414. 1264. 270. o
1238 1 1 9 10 1414. 1264. 270. o
1239 2 -1 9 10 1414. 1430. 321. o
1239 1 1 9 -10 1414. 1430. 321. o
1240 3 3 -9 -5 3030. 3647. 569. o
1240 2 -2 9 -10 3030. 3647. 569. o
1240 1 2 9 10 3030. 3647. 569. o
1241 2 -2 9 10 2975. 2404. 591. o
1241 1 2 9 -10 2975. 2404. 591. o
1242 2 -3 9 -10 955. 1098. 280. o
1242 1 3 9 10 955. 1098. 280. o
1243 2 -3 9 10 954. 933. 332. o
1243 1 3 9 -10 954. 933. 332. o
1244 2 -4 9 -10 4023. 2798. 283. o
1244 1 4 9 10 4023. 2798. 283. o
1245 2 -4 9 10 4017. 2849. 345. o
1245 1 4 9 -10 4017. 2849. 345. o
1246 2 -5 9 -10 772. 1627. 310. o
1246 1 5 9 10 772. 1627. 310. o
1247 2 -5 9 10 772. 1171. 342. o
1247 1 5 9 -10 772. 1171. 342. o
1248 2 2 10 -10 22270. 17780. 449. o
1248 1 -2 10 10 22270. 17780. 449. o
1249 2 -2 10 10 22265. 17200. 472. o
1249 1 2 10 -10 22265. 17200. 472. o
1250 2 0 10 -10 2920. 2487. 467. o
1250 1 0 10 10 2920. 2487. 467. o
1251 2 0 10 10 2927. 2466. 436. o
1251 1 0 10 -10 2927. 2466. 436. o
1252 2 -1 10 -10 2579. 2725. 300. o
1252 1 1 10 10 2579. 2725. 300. o
1253 2 -1 10 10 2579. 3212. 340. o
1253 1 1 10 -10 2579. 3212. 340. o
1254 3 3 -10 -5 22271. 21924. 749. o
1254 2 -2 10 -10 22271. 21924. 749. o
1254 1 2 10 10 22271. 21924. 749. o
1255 2 -2 10 10 22265. 18619. 812. o
1255 1 2 10 -10 22265. 18619. 812. o
1256 2 -3 10 -10 792. 1347. 279. o
1256 1 3 10 10 792. 1347. 279. o
1257 2 -3 10 10 791. 912. 352. o
1257 1 3 10 -10 791. 912. 352. o
1258 2 -1 1 -11 479345. 539675. 10185. o
1258 1 1 1 11 479345. 539675. 10185. o
1259 2 -1 1 11 479326. 503390. 9932. o
1259 1 1 1 -11 479326. 503390. 9932. o
1260 2 -1 2 -11 1470. 342. 343. <
1260 1 1 2 11 1470. 342. 343. <
1261 2 -1 2 11 1464. 373. 332. <
1261 1 1 2 -11 1464. 373. 332. <
1262 2 -2 2 -11 9894. 5802. 463. o
1262 1 2 2 11 9894. 5802. 463. o
1263 2 -2 2 11 9897. 6103. 858. o
1263 1 2 2 -11 9897. 6103. 858. o
1264 2 3 3 -11 70963. 80683. 612. o
1264 1 -3 3 11 70963. 80683. 612. o
1265 2 -3 3 11 71004. 80828. 1007. o
1265 1 3 3 -11 71004. 80828. 1007. o
1266 2 -1 3 -11 171595. 192937. 3633. o
1266 1 1 3 11 171595. 192937. 3633. o
1267 2 -1 3 11 171632. 186119. 3614. o
1267 1 1 3 -11 171632. 186119. 3614. o
1268 2 -2 3 -11 152. -31. 300. <
1268 1 2 3 11 152. -31. 300. <
1269 2 -2 3 11 154. 311. 280. <
1269 1 2 3 -11 154. 311. 280. <
1270 3 4 -3 -4 70984. 71834. 1020. o
1270 2 -3 3 -11 70984. 71834. 1020. o
1270 1 3 3 11 70984. 71834. 1020. o
1271 2 -3 3 11 71004. 72684. 1004. o
1271 1 3 3 -11 71004. 72684. 1004. o
1272 2 3 4 -11 149. 114. 249. <
1272 1 -3 4 11 149. 114. 249. <
1273 2 -3 4 11 149. 145. 300. <
1273 1 3 4 -11 149. 145. 300. <
1274 2 -1 4 -11 5446. 3264. 248. o
1274 1 1 4 11 5446. 3264. 248. o
1275 2 -1 4 11 5453. 2777. 309. o
1275 1 1 4 -11 5453. 2777. 309. o
1276 2 -2 4 -11 11837. 6870. 327. o
1276 1 2 4 11 11837. 6870. 327. o
1277 2 -2 4 11 11838. 6714. 337. o
1277 1 2 4 -11 11838. 6714. 337. o
1278 3 4 -4 -4 1089. -166. 705. <
1278 2 -3 4 -11 1089. -166. 705. <
1278 1 3 4 11 1089. -166. 705. <
1279 2 -3 4 11 149. 21. 497. <
1279 1 3 4 -11 149. 21. 497. <
1280 2 -4 4 -11 17141. 11304. 547. o
1280 1 4 4 11 17141. 11304. 547. o
1281 2 -4 4 11 17135. 10071. 431. o
1281 1 4 4 -11 17135. 10071. 431. o
1282 2 3 5 -11 31052. 31944. 319. o
1282 1 -3 5 11 31052. 31944. 319. o
1283 2 -3 5 11 31062. 32700. 379. o
1283 1 3 5 -11 31062. 32700. 379. o
1284 2 -1 5 -11 27075. 19324. 418. o
1284 1 1 5 11 27075. 19324. 418. o
1285 2 -1 5 11 27077. 20308. 453. o
1285 1 1 5 -11 27077. 20308. 453. o
1286 2 -2 5 -11 1610. 404. 260. <
1286 1 2 5 11 1610. 404. 260. <
1287 2 -2 5 11 1614. 269. 270. <
1287 1 2 5 -11 1614. 269. 270. <
1288 3 4 -5 -4 31065. 34410. 814. o
1288 2 -3 5 -11 31065. 34410. 814. o
1288 1 3 5 11 31065. 34410. 814. o
1289 2 -3 5 11 31062. 31063. 850. o
1289 1 3 5 -11 31062. 31063. 850. o
1290 2 -4 5 -11 1531. 705. 281. o
1290 1 4 5 11 1531. 705. 281. o
1291 2 -4 5 11 1532. 135. 250. <
1291 1 4 5 -11 1532. 135. 250. <
1292 2 -5 5 -11 12410. 14537. 460. o
1292 1 5 5 11 12410. 14537. 460. o
1293 3 3 -5 19 12467. 13470. 553. o
1293 2 -5 5 11 12467. 13470. 553. o
1293 1 5 5 -11 12467. 13470. 553. o
1294 2 5 5 11 12409. 13480. 563. o
1294 1 -5 5 -11 12409. 13480. 563. o
1295 2 3 6 -11 315. 829. 269. o
1295 1 -3 6 11 315. 829. 269. o
1296 2 -3 6 11 315. 611. 290. o
1296 1 3 6 -11 315. 611. 290. o
1297 2 -1 6 -11 1073. 901. 228. o
1297 1 1 6 11 1073. 901. 228. o
1298 2 -1 6 11 1075. 839. 290. o
1298 1 1 6 -11 1075. 839. 290. o
1299 2 -2 6 -11 2980. 2279. 261. o
1299 1 2 6 11 2980. 2279. 261. o
1300 2 -2 6 11 2983. 2134. 282. o
1300 1 2 6 -11 2983. 2134. 282. o
1301 3 4 -6 -4 431. 487. 601. <
1301 2 -3 6 -11 431. 487. 601. <
1301 1 3 6 11 431. 487. 601. <
1302 2 -3 6 11 315. 414. 632. <
1302 1 3 6 -11 315. 414. 632. <
1303 2 -4 6 -11 3276. 3150. 259. o
1303 1 4 6 11 3276. 3150. 259. o
1304 2 -4 6 11 3275. 2860. 291. o
1304 1 4 6 -11 3275. 2860. 291. o
1305 2 -5 6 -11 297. 601. 300. <
1305 1 5 6 11 297. 601. 300. <
1306 2 5 6 11 296. 352. 404. <
1306 1 -5 6 -11 296. 352. 404. <
1307 3 3 -6 19 297. -280. 777. <
1307 2 -5 6 11 297. -280. 777. <
1307 1 5 6 -11 297. -280. 777. <
1308 2 5 6 11 296. 352. 425. <
1308 1 -5 6 -11 296. 352. 425. <
1309 3 3 -6 19 297. 352. 819. <
1309 2 -5 6 11 297. 352. 819. <
1309 1 5 6 -11 297. 352. 819. <
1310 2 -6 6 -11 1837. 1181. 446. o
1310 1 6 6 11 1837. 1181. 446. o
1311 2 -6 6 11 1836. 1523. 384. o
1311 1 6 6 -11 1836. 1523. 384. o
1312 2 3 7 -11 4472. 2901. 254. o
1312 1 -3 7 11 4472. 2901. 254. o
1313 2 -3 7 11 4472. 2684. 306. o
1313 1 3 7 -11 4472. 2684. 306. o
1314 2 -1 7 -11 5270. 1326. 260. o
1314 1 1 7 11 5270. 1326. 260. o
1315 2 -1 7 11 5271. 1647. 310. o
1315 1 1 7 -11 5271. 1647. 310. o
1316 2 -2 7 -11 1708. 187. 250. <
1316 1 2 7 11 1708. 187. 250. <
1317 2 -2 7 11 1708. 446. 281. <
1317 1 2 7 -11 1708. 446. 281. <
1318 3 4 -7 -4 4476. 2538. 583. o
1318 2 -3 7 -11 4476. 2538. 583. o
1318 1 3 7 11 4476. 2538. 583. o
1319 2 -3 7 11 4472. 2507. 666. o
1319 1 3 7 -11 4472. 2507. 666. o
1320 2 -4 7 -11 2615. 953. 262. o
1320 1 4 7 11 2615. 953. 262. o
1321 2 -4 7 11 2612. 549. 282. <
1321 1 4 7 -11 2612. 549. 282. <
1322 2 -5 7 -11 15333. 19552. 276. o
1322 1 5 7 11 15333. 19552. 276. o
1323 2 5 7 11 15326. 18837. 474. o
1323 1 -5 7 -11 15326. 18837. 474. o
1324 3 3 -7 19 15345. 20629. 1010. o
1324 2 -5 7 11 15345. 20629. 1010. o
1324 1 5 7 -11 15345. 20629. 1010. o
1325 2 5 7 11 15326. 18319. 1232. o
1325 1 -5 7 -11 15326. 18319. 1232. o
1326 3 3 -7 19 15345. 22411. 727. o
1326 2 -5 7 11 15345. 22411. 727. o
1326 1 5 7 -11 15345. 22411. 727. o
1327 2 5 7 11 15326. 21313. 985. o
1327 1 -5 7 -11 15326. 21313. 985. o
1328 2 -6 7 -11 615. 622. 332. <
1328 1 6 7 11 615. 622. 332. <
1329 2 -6 7 11 614. 663. 280. o
1329 1 6 7 -11 614. 663. 280. o
1330 2 -7 7 -11 3699. 5719. 481. o
1330 1 7 7 11 3699. 5719. 481. o
1331 2 -7 7 11 3695. 5077. 400. o
1331 1 7 7 -11 3695. 5077. 400. o
1332 2 3 8 -11 106. 673. 311. o
1332 1 -3 8 11 106. 673. 311. o
1333 2 -3 8 11 107. 622. 321. <
1333 1 3 8 -11 107. 622. 321. <
1334 2 -1 8 -11 161. 207. 238. <
1334 1 1 8 11 161. 207. 238. <
1335 2 -1 8 11 162. 373. 300. <
1335 1 1 8 -11 162. 373. 300. <
1336 2 -2 8 -11 30. 632. 228. o
1336 1 2 8 11 30. 632. 228. o
1337 2 -2 8 11 29. 446. 300. <
1337 1 2 8 -11 29. 446. 300. <
1338 3 4 -8 -4 341. 673. 549. <
1338 2 -3 8 -11 341. 673. 549. <
1338 1 3 8 11 341. 673. 549. <
1339 2 -3 8 11 107. 508. 694. <
1339 1 3 8 -11 107. 508. 694. <
1340 2 -4 8 -11 79. 539. 290. <
1340 1 4 8 11 79. 539. 290. <
1341 2 -4 8 11 79. 549. 300. <
1341 1 4 8 -11 79. 549. 300. <
1342 2 -5 8 -11 109. 642. 280. o
1342 1 5 8 11 109. 642. 280. o
1343 2 5 8 11 109. 798. 611. <
1343 1 -5 8 -11 109. 798. 611. <
1344 3 3 -8 19 109. 736. 570. <
1344 2 -5 8 11 109. 736. 570. <
1344 1 5 8 -11 109. 736. 570. <
1345 2 5 8 11 109. 663. 435. <
1345 1 -5 8 -11 109. 663. 435. <
1346 2 -6 8 -11 15. 1243. 310. o
1346 1 6 8 11 15. 1243. 310. o
1347 2 -6 8 11 15. 901. 290. o
1347 1 6 8 -11 15. 901. 290. o
1348 2 3 9 -11 3739. 3699. 301. o
1348 1 -3 9 11 3739. 3699. 301. o
1349 2 -3 9 11 3741. 3595. 404. o
1349 1 3 9 -11 3741. 3595. 404. o
1350 2 -1 9 -11 872. 787. 269. o
1350 1 1 9 11 872. 787. 269. o
1351 2 -1 9 11 874. 787. 332. o
1351 1 1 9 -11 874. 787. 332. o
1352 2 -2 9 -11 579. 912. 279. o
1352 1 2 9 11 579. 912. 279. o
1353 2 -2 9 11 579. 632. 300. o
1353 1 2 9 -11 579. 632. 300. o
1354 3 4 -9 -4 3744. 2404. 654. o
1354 2 -3 9 -11 3744. 2404. 654. o
1354 1 3 9 11 3744. 2404. 654. o
1355 2 -3 9 11 3741. 2663. 695. o
1355 1 3 9 -11 3741. 2663. 695. o
1356 2 -4 9 -11 807. 777. 280. o
1356 1 4 9 11 807. 777. 280. o
1357 2 -4 9 11 808. 891. 342. o
1357 1 4 9 -11 808. 891. 342. o
1358 2 -5 9 -11 1281. 1875. 279. o
1358 1 5 9 11 1281. 1875. 279. o
1359 2 5 9 11 1281. 2145. 745. o
1359 1 -5 9 -11 1281. 2145. 745. o
1360 3 3 -9 19 1292. 3440. 993. o
1360 2 -5 9 11 1292. 3440. 993. o
1360 1 5 9 -11 1292. 3440. 993. o
1361 2 5 9 11 1281. 2373. 807. o
1361 1 -5 9 -11 1281. 2373. 807. o
1362 3 3 -9 19 1292. 1813. 901. o
1362 2 -5 9 11 1292. 1813. 901. o
1362 1 5 9 -11 1292. 1813. 901. o
1363 2 5 9 11 1281. 1813. 704. o
1363 1 -5 9 -11 1281. 1813. 704. o
1364 2 -1 10 -11 740. 1440. 289. o
1364 1 1 10 11 740. 1440. 289. o
1365 2 -1 10 11 740. 829. 290. o
1365 1 1 10 -11 740. 829. 290. o
1366 2 -2 10 -11 222. 1140. 300. o
1366 1 2 10 11 222. 1140. 300. o
1367 2 -2 10 11 221. 829. 352. o
1367 1 2 10 -11 221. 829. 352. o
1368 2 0 0 -12 384322. 490294. 9098. o
1368 1 0 0 12 384322. 490294. 9098. o
1369 2 0 0 12 384322. 476575. 9010. o
1369 1 0 0 -12 384322. 476575. 9010. o
1370 2 0 1 -12 471. 1544. 434. o
1370 1 0 1 12 471. 1544. 434. o
1371 2 0 1 12 473. 1461. 476. o
1371 1 0 1 -12 473. 1461. 476. o
1372 2 -1 1 -12 421. 21. 477. <
1372 1 1 1 12 421. 21. 477. <
1373 2 -1 1 12 422. 342. 456. <
1373 1 1 1 -12 422. 342. 456. <
1374 2 0 2 -12 77983. 72498. 897. o
1374 1 0 2 12 77983. 72498. 897. o
1375 2 0 2 12 77978. 67203. 982. o
1375 1 0 2 -12 77978. 67203. 982. o
1376 2 -1 2 -12 17358. 17158. 386. o
1376 1 1 2 12 17358. 17158. 386. o
1377 2 -1 2 12 17349. 16536. 454. o
1377 1 1 2 -12 17349. 16536. 454. o
1378 2 -2 2 -12 211485. 232061. 4472. o
1378 1 2 2 12 211485. 232061. 4472. o
1379 2 -2 2 12 211455. 235532. 4583. o
1379 1 2 2 -12 211455. 235532. 4583. o
1380 2 0 3 -12 46195. 43932. 635. o
1380 1 0 3 12 46195. 43932. 635. o
1381 2 0 3 12 46205. 43041. 669. o
1381 1 0 3 -12 46205. 43041. 669. o
1382 2 -1 3 -12 7316. 4704. 313. o
1382 1 1 3 12 7316. 4704. 313. o
1383 2 -1 3 12 7318. 4849. 403. o
1383 1 1 3 -12 7318. 4849. 403. o
1384 2 -2 3 -12 876. 414. 280. <
1384 1 2 3 12 876. 414. 280. <
1385 2 -2 3 12 875. 736. 332. o
1385 1 2 3 -12 875. 736. 332. o
1386 2 -3 3 -12 9538. 2808. 377. o
1386 1 3 3 12 9538. 2808. 377. o
1387 2 -3 3 12 9539. 2279. 485. o
1387 1 3 3 -12 9539. 2279. 485. o
1388 3 -2 -4 -18 41147. 43476. 633. o
1388 2 4 4 -12 41147. 43476. 633. o
1388 1 -4 4 12 41147. 43476. 633. o
1389 3 2 -4 18 41154. 43870. 692. o
1389 2 -4 4 12 41154. 43870. 692. o
1389 1 4 4 -12 41154. 43870. 692. o
1390 2 0 4 -12 95875. 101685. 466. o
1390 1 0 4 12 95875. 101685. 466. o
1391 2 0 4 12 95846. 98038. 654. o
1391 1 0 4 -12 95846. 98038. 654. o
1392 2 -1 4 -12 3630. 3875. 248. o
1392 1 1 4 12 3630. 3875. 248. o
1393 2 -1 4 12 3635. 3968. 320. o
1393 1 1 4 -12 3635. 3968. 320. o
1394 2 -2 4 -12 7841. 5854. 302. o
1394 1 2 4 12 7841. 5854. 302. o
1395 2 -2 4 12 7851. 5989. 331. o
1395 1 2 4 -12 7851. 5989. 331. o
1396 2 -3 4 -12 4698. 3823. 283. o
1396 1 3 4 12 4698. 3823. 283. o
1397 2 -3 4 12 4694. 3202. 285. o
1397 1 3 4 -12 4694. 3202. 285. o
1398 3 5 -4 -3 41155. 48180. 916. o
1398 2 -4 4 -12 41155. 48180. 916. o
1398 1 4 4 12 41155. 48180. 916. o
1399 3 -5 -4 3 41162. 42885. 762. o
1399 2 4 4 12 41162. 42885. 762. o
1399 1 -4 4 -12 41162. 42885. 762. o
1400 2 -5 4 -12 1391. 539. 425. <
1400 1 5 4 12 1391. 539. 425. <
1401 2 -5 4 12 1392. 839. 446. <
1401 1 5 4 -12 1392. 839. 446. <
1402 2 -6 4 -12 874. -176. 363. <
1402 1 6 4 12 874. -176. 363. <
1403 2 -6 4 12 877. 228. 384. <
1403 1 6 4 -12 877. 228. 384. <
1404 2 -7 4 -12 1302. 1243. 373. o
1404 1 7 4 12 1302. 1243. 373. o
1405 2 -7 4 12 1298. 860. 394. o
1405 1 7 4 -12 1298. 860. 394. o
1406 2 -8 4 -12 6402. 6103. 385. o
1406 1 8 4 12 6402. 6103. 385. o
1407 2 -8 4 12 6403. 6134. 478. o
1407 1 8 4 -12 6403. 6134. 478. o
1408 2 -9 4 -12 165. 870. 342. o
1408 1 9 4 12 165. 870. 342. o
1409 2 -9 4 12 167. 1015. 507. <
1409 1 9 4 -12 167. 1015. 507. <
1410 3 -2 -5 -18 1412. 1440. 497. o
1410 2 4 5 -12 1412. 1440. 497. o
1410 1 -4 5 12 1412. 1440. 497. o
1411 3 2 -5 18 1413. 725. 363. <
1411 2 -4 5 12 1413. 725. 363. <
1411 1 4 5 -12 1413. 725. 363. <
1412 2 0 5 -12 2109. 1585. 363. o
1412 1 0 5 12 2109. 1585. 363. o
1413 2 0 5 12 2114. 2166. 456. o
1413 1 0 5 -12 2114. 2166. 456. o
1414 2 -1 5 -12 539. 321. 228. <
1414 1 1 5 12 539. 321. 228. <
1415 2 -1 5 12 539. 207. 290. <
1415 1 1 5 -12 539. 207. 290. <
1416 2 -2 5 -12 12723. 13387. 293. o
1416 1 2 5 12 12723. 13387. 293. o
1417 2 -2 5 12 12725. 12081. 318. o
1417 1 2 5 -12 12725. 12081. 318. o
1418 2 -3 5 -12 8324. 5854. 275. o
1418 1 3 5 12 8324. 5854. 275. o
1419 2 -3 5 12 8323. 6155. 313. o
1419 1 3 5 -12 8323. 6155. 313. o
1420 3 5 -5 -3 1392. 1596. 839. <
1420 2 -4 5 -12 1392. 1596. 839. <
1420 1 4 5 12 1392. 1596. 839. <
1421 3 -5 -5 3 1393. 746. 581. <
1421 2 4 5 12 1393. 746. 581. <
1421 1 -4 5 -12 1393. 746. 581. <
1422 2 -5 5 -12 1792. 1368. 425. o
1422 1 5 5 12 1792. 1368. 425. o
1423 2 -5 5 12 1788. 1181. 343. o
1423 1 5 5 -12 1788. 1181. 343. o
1424 3 -2 -6 -18 879. 321. 394. <
1424 2 4 6 -12 879. 321. 394. <
1424 1 -4 6 12 879. 321. 394. <
1425 3 2 -6 18 882. 808. 446. <
1425 2 -4 6 12 882. 808. 446. <
1425 1 4 6 -12 882. 808. 446. <
1426 2 0 6 -12 512. 1989. 299. o
1426 1 0 6 12 512. 1989. 299. o
1427 2 0 6 12 512. 1689. 445. o
1427 1 0 6 -12 512. 1689. 445. o
1428 2 -1 6 -12 1137. 446. 260. <
1428 1 1 6 12 1137. 446. 260. <
1429 2 -1 6 12 1136. 725. 270. o
1429 1 1 6 -12 1136. 725. 270. o
1430 2 -2 6 -12 18725. 15231. 348. o
1430 1 2 6 12 18725. 15231. 348. o
1431 2 -2 6 12 18718. 14951. 377. o
1431 1 2 6 -12 18718. 14951. 377. o
1432 2 -3 6 -12 7334. 7180. 281. o
1432 1 3 6 12 7334. 7180. 281. o
1433 2 -3 6 12 7336. 6745. 304. o
1433 1 3 6 -12 7336. 6745. 304. o
1434 3 5 -6 -3 875. 394. 643. <
1434 2 -4 6 -12 875. 394. 643. <
1434 1 4 6 12 875. 394. 643. <
1435 3 -5 -6 3 878. -280. 601. <
1435 2 4 6 12 878. -280. 601. <
1435 1 -4 6 -12 878. -280. 601. <
1436 2 -5 6 -12 346. 332. 280. <
1436 1 5 6 12 346. 332. 280. <
1437 2 -5 6 12 346. 249. 269. <
1437 1 5 6 -12 346. 249. 269. <
1438 2 -6 6 -12 11821. 15304. 492. o
1438 1 6 6 12 11821. 15304. 492. o
1439 2 -6 6 12 11822. 14288. 425. o
1439 1 6 6 -12 11822. 14288. 425. o
1440 3 -2 -7 -18 1304. 1036. 611. <
1440 2 4 7 -12 1304. 1036. 611. <
1440 1 -4 7 12 1304. 1036. 611. <
1441 3 2 -7 18 1300. 1119. 611. <
1441 2 -4 7 12 1300. 1119. 611. <
1441 1 4 7 -12 1300. 1119. 611. <
1442 2 0 7 -12 3721. 2963. 303. o
1442 1 0 7 12 3721. 2963. 303. o
1443 2 0 7 12 3720. 2445. 468. o
1443 1 0 7 -12 3720. 2445. 468. o
1444 2 -1 7 -12 635. 632. 238. o
1444 1 1 7 12 635. 632. 238. o
1445 2 -1 7 12 635. 653. 300. o
1445 1 1 7 -12 635. 653. 300. o
1446 2 -2 7 -12 221. -31. 249. <
1446 1 2 7 12 221. -31. 249. <
1447 2 -2 7 12 223. 290. 280. <
1447 1 2 7 -12 223. 290. 280. <
1448 2 -3 7 -12 146. 456. 259. <
1448 1 3 7 12 146. 456. 259. <
1449 2 -3 7 12 146. 218. 280. <
1449 1 3 7 -12 146. 218. 280. <
1450 3 5 -7 -3 1312. 715. 612. <
1450 2 -4 7 -12 1312. 715. 612. <
1450 1 4 7 12 1312. 715. 612. <
1451 3 -5 -7 3 1308. 808. 622. <
1451 2 4 7 12 1308. 808. 622. <
1451 1 -4 7 -12 1308. 808. 622. <
1452 2 -5 7 -12 807. 1357. 290. o
1452 1 5 7 12 807. 1357. 290. o
1453 2 -5 7 12 806. 984. 290. o
1453 1 5 7 -12 806. 984. 290. o
1454 2 -6 7 -12 531. 1326. 300. o
1454 1 6 7 12 531. 1326. 300. o
1455 2 -6 7 12 531. 580. 311. <
1455 1 6 7 -12 531. 580. 311. <
1456 2 -7 7 -12 53. 663. 445. <
1456 1 7 7 12 53. 663. 445. <
1457 2 -7 7 12 53. 839. 414. o
1457 1 7 7 -12 53. 839. 414. o
1458 3 -2 -8 -18 6410. 6269. 674. o
1458 2 4 8 -12 6410. 6269. 674. o
1458 1 -4 8 12 6410. 6269. 674. o
1459 3 2 -8 18 6411. 5067. 697. o
1459 2 -4 8 12 6411. 5067. 697. o
1459 1 4 8 -12 6411. 5067. 697. o
1460 2 0 8 -12 6300. 1596. 383. o
1460 1 0 8 12 6300. 1596. 383. o
1461 2 0 8 12 6296. 1710. 424. o
1461 1 0 8 -12 6296. 1710. 424. o
1462 2 -1 8 -12 2270. 1844. 250. o
1462 1 1 8 12 2270. 1844. 250. o
1463 2 -1 8 12 2272. 1824. 332. o
1463 1 1 8 -12 2272. 1824. 332. o
1464 2 -2 8 -12 451. 1906. 257. o
1464 1 2 8 12 451. 1906. 257. o
1465 2 -2 8 12 449. 1958. 330. o
1465 1 2 8 -12 449. 1958. 330. o
1466 2 -3 8 -12 647. 819. 280. o
1466 1 3 8 12 647. 819. 280. o
1467 2 -3 8 12 648. 953. 321. o
1467 1 3 8 -12 648. 953. 321. o
1468 3 5 -8 -3 6404. 6217. 715. o
1468 2 -4 8 -12 6404. 6217. 715. o
1468 1 4 8 12 6404. 6217. 715. o
1469 3 -5 -8 3 6405. 4880. 677. o
1469 2 4 8 12 6405. 4880. 677. o
1469 1 -4 8 -12 6405. 4880. 677. o
1470 2 -5 8 -12 2601. 2259. 291. o
1470 1 5 8 12 2601. 2259. 291. o
1471 2 -5 8 12 2601. 2445. 342. o
1471 1 5 8 -12 2601. 2445. 342. o
1472 2 -6 8 -12 773. 1710. 331. o
1472 1 6 8 12 773. 1710. 331. o
1473 2 -6 8 12 775. 1451. 321. o
1473 1 6 8 -12 775. 1451. 321. o
1474 3 -2 -9 -18 166. 1171. 559. o
1474 2 4 9 -12 166. 1171. 559. o
1474 1 -4 9 12 166. 1171. 559. o
1475 3 2 -9 18 168. 1337. 632. o
1475 2 -4 9 12 168. 1337. 632. o
1475 1 4 9 -12 168. 1337. 632. o
1476 2 0 9 -12 1536. 1565. 352. o
1476 1 0 9 12 1536. 1565. 352. o
1477 2 0 9 12 1537. 891. 374. o
1477 1 0 9 -12 1537. 891. 374. o
1478 2 -1 9 -12 221. 829. 279. o
1478 1 1 9 12 221. 829. 279. o
1479 2 -1 9 12 221. 456. 342. <
1479 1 1 9 -12 221. 456. 342. <
1480 2 -2 9 -12 435. 580. 280. o
1480 1 2 9 12 435. 580. 280. o
1481 2 -2 9 12 434. 373. 363. <
1481 1 2 9 -12 434. 373. 363. <
1482 2 -3 9 -12 103. 736. 279. o
1482 1 3 9 12 103. 736. 279. o
1483 2 -3 9 12 102. 829. 352. o
1483 1 3 9 -12 102. 829. 352. o
1484 3 5 -9 -3 166. 684. 673. <
1484 2 -4 9 -12 166. 684. 673. <
1484 1 4 9 12 166. 684. 673. <
1485 3 -5 -9 3 167. 922. 715. <
1485 2 4 9 12 167. 922. 715. <
1485 1 -4 9 -12 167. 922. 715. <
1486 2 -5 9 -12 216. 1399. 310. o
1486 1 5 9 12 216. 1399. 310. o
1487 2 -5 9 12 216. 995. 331. o
1487 1 5 9 -12 216. 995. 331. o
1488 2 0 10 -12 148. 901. 404. o
1488 1 0 10 12 148. 901. 404. o
1489 2 0 10 12 147. 1233. 445. o
1489 1 0 10 -12 147. 1233. 445. o
1490 2 -1 10 -12 162. 632. 290. o
1490 1 1 10 12 162. 632. 290. o
1491 2 -1 10 12 162. 663. 331. <
1491 1 1 10 -12 162. 663. 331. <
1492 2 -2 10 -12 2594. 1399. 282. o
1492 1 2 10 12 2594. 1399. 282. o
1493 2 -2 10 12 2593. 1565. 333. o
1493 1 2 10 -12 2593. 1565. 333. o
1494 2 -1 1 -13 476. 632. 487. <
1494 1 1 1 13 476. 632. 487. <
1495 2 -1 1 13 479. 311. 425. <
1495 1 1 1 -13 479. 311. 425. <
1496 2 -1 2 -13 19839. 20764. 370. o
1496 1 1 2 13 19839. 20764. 370. o
1497 2 -1 2 13 19829. 19976. 433. o
1497 1 1 2 -13 19829. 19976. 433. o
1498 2 -2 2 -13 2617. 808. 437. <
1498 1 2 2 13 2617. 808. 437. <
1499 2 -2 2 13 2612. 1233. 623. <
1499 1 2 2 -13 2612. 1233. 623. <
1500 2 -1 3 -13 1794. 1865. 300. o
1500 1 1 3 13 1794. 1865. 300. o
1501 2 -1 3 13 1795. 2020. 425. o
1501 1 1 3 -13 1795. 2020. 425. o
1502 2 -2 3 -13 2221. 1782. 250. o
1502 1 2 3 13 2221. 1782. 250. o
1503 2 -2 3 13 2222. 1844. 342. o
1503 1 2 3 -13 2222. 1844. 342. o
1504 2 -3 3 -13 2151. 1679. 394. o
1504 1 3 3 13 2151. 1679. 394. o
1505 3 1 -3 17 2151. 1347. 539. o
1505 2 -3 3 13 2151. 1347. 539. o
1505 1 3 3 -13 2151. 1347. 539. o
1506 2 3 3 13 2145. 1212. 653. <
1506 1 -3 3 -13 2145. 1212. 653. <
1507 2 -1 4 -13 27982. 27302. 356. o
1507 1 1 4 13 27982. 27302. 356. o
1508 2 -1 4 13 27982. 27136. 419. o
1508 1 1 4 -13 27982. 27136. 419. o
1509 2 -2 4 -13 2339. 549. 241. o
1509 1 2 4 13 2339. 549. 241. o
1510 2 -2 4 13 2336. 725. 261. o
1510 1 2 4 -13 2336. 725. 261. o
1511 2 -3 4 -13 3246. 3968. 298. o
1511 1 3 4 13 3246. 3968. 298. o
1512 2 3 4 13 3247. 3585. 1025. o
1512 1 -3 4 -13 3247. 3585. 1025. o
1513 3 1 -4 17 3251. 3398. 870. o
1513 2 -3 4 13 3251. 3398. 870. o
1513 1 3 4 -13 3251. 3398. 870. o
1514 2 3 4 13 3247. 3626. 414. o
1514 1 -3 4 -13 3247. 3626. 414. o
1515 3 1 -4 17 3251. 3057. 726. o
1515 2 -3 4 13 3251. 3057. 726. o
1515 1 3 4 -13 3251. 3057. 726. o
1516 2 3 4 13 3247. 2922. 757. o
1516 1 -3 4 -13 3247. 2922. 757. o
1517 2 -4 4 -13 4018. 1730. 428. o
1517 1 4 4 13 4018. 1730. 428. o
1518 2 -4 4 13 4013. 1202. 480. o
1518 1 4 4 -13 4013. 1202. 480. o
1519 2 5 5 -13 611. 145. 477. <
1519 1 -5 5 13 611. 145. 477. <
1520 2 -5 5 13 612. 560. 383. <
1520 1 5 5 -13 612. 560. 383. <
1521 2 -1 5 -13 4087. 3844. 229. o
1521 1 1 5 13 4087. 3844. 229. o
1522 2 -1 5 13 4092. 3751. 291. o
1522 1 1 5 -13 4092. 3751. 291. o
1523 2 -2 5 -13 762. 622. 259. o
1523 1 2 5 13 762. 622. 259. o
1524 2 -2 5 13 762. 891. 300. o
1524 1 2 5 -13 762. 891. 300. o
1525 2 -3 5 -13 890. 1036. 249. o
1525 1 3 5 13 890. 1036. 249. o
1526 3 1 -5 17 924. 767. 746. <
1526 2 -3 5 13 924. 767. 746. <
1526 1 3 5 -13 924. 767. 746. <
1527 2 3 5 13 889. 1160. 331. o
1527 1 -3 5 -13 889. 1160. 331. o
1528 3 1 -5 17 924. 1212. 787. <
1528 2 -3 5 13 924. 1212. 787. <
1528 1 3 5 -13 924. 1212. 787. <
1529 2 3 5 13 889. 901. 953. <
1529 1 -3 5 -13 889. 901. 953. <
1530 2 -4 5 -13 393. 901. 269. o
1530 1 4 5 13 393. 901. 269. o
1531 2 -4 5 13 392. 1036. 300. o
1531 1 4 5 -13 392. 1036. 300. o
1532 3 6 -5 -2 618. -145. 560. <
1532 2 -5 5 -13 618. -145. 560. <
1532 1 5 5 13 618. -145. 560. <
1533 2 -5 5 13 612. 332. 591. <
1533 1 5 5 -13 612. 332. 591. <
1534 2 5 6 -13 32. 280. 311. <
1534 1 -5 6 13 32. 280. 311. <
1535 2 -5 6 13 32. 456. 342. <
1535 1 5 6 -13 32. 456. 342. <
1536 2 -1 6 -13 6518. 7367. 274. o
1536 1 1 6 13 6518. 7367. 274. o
1537 2 -1 6 13 6521. 7035. 329. o
1537 1 1 6 -13 6521. 7035. 329. o
1538 2 -2 6 -13 782. 570. 270. o
1538 1 2 6 13 782. 570. 270. o
1539 2 -2 6 13 782. 508. 290. <
1539 1 2 6 -13 782. 508. 290. <
1540 2 -3 6 -13 1440. 1285. 270. o
1540 1 3 6 13 1440. 1285. 270. o
1541 2 3 6 13 1440. 601. 550. <
1541 1 -3 6 -13 1440. 601. 550. <
1542 3 1 -6 17 1443. 2010. 766. o
1542 2 -3 6 13 1443. 2010. 766. o
1542 1 3 6 -13 1443. 2010. 766. o
1543 2 3 6 13 1440. 1751. 829. o
1543 1 -3 6 -13 1440. 1751. 829. o
1544 3 1 -6 17 1443. 1627. 777. o
1544 2 -3 6 13 1443. 1627. 777. o
1544 1 3 6 -13 1443. 1627. 777. o
1545 2 3 6 13 1440. 1461. 591. o
1545 1 -3 6 -13 1440. 1461. 591. o
1546 2 -4 6 -13 426. 622. 280. o
1546 1 4 6 13 426. 622. 280. o
1547 2 -4 6 13 425. 135. 290. <
1547 1 4 6 -13 425. 135. 290. <
1548 3 6 -6 -2 70. 1088. 497. o
1548 2 -5 6 -13 70. 1088. 497. o
1548 1 5 6 13 70. 1088. 497. o
1549 2 -5 6 13 32. 62. 549. <
1549 1 5 6 -13 32. 62. 549. <
1550 2 -6 6 -13 513. 684. 435. <
1550 1 6 6 13 513. 684. 435. <
1551 2 -6 6 13 512. 839. 404. o
1551 1 6 6 -13 512. 839. 404. o
1552 2 5 7 -13 385. 725. 311. o
1552 1 -5 7 13 385. 725. 311. o
1553 2 -5 7 13 385. 124. 352. <
1553 1 5 7 -13 385. 124. 352. <
1554 2 -1 7 -13 3409. 2134. 273. o
1554 1 1 7 13 3409. 2134. 273. o
1555 2 -1 7 13 3413. 2435. 323. o
1555 1 1 7 -13 3413. 2435. 323. o
1556 2 -2 7 -13 1406. 2103. 268. o
1556 1 2 7 13 1406. 2103. 268. o
1557 2 -2 7 13 1405. 1772. 290. o
1557 1 2 7 -13 1405. 1772. 290. o
1558 2 -3 7 -13 502. 591. 280. o
1558 1 3 7 13 502. 591. 280. o
1559 2 3 7 13 503. -933. 901. <
1559 1 -3 7 -13 503. -933. 901. <
1560 3 1 -7 17 555. 228. 839. <
1560 2 -3 7 13 555. 228. 839. <
1560 1 3 7 -13 555. 228. 839. <
1561 2 3 7 13 503. 124. 394. <
1561 1 -3 7 -13 503. 124. 394. <
1562 3 1 -7 17 555. -41. 756. <
1562 2 -3 7 13 555. -41. 756. <
1562 1 3 7 -13 555. -41. 756. <
1563 2 3 7 13 503. 435. 1171. <
1563 1 -3 7 -13 503. 435. 1171. <
1564 2 -4 7 -13 1907. 2507. 268. o
1564 1 4 7 13 1907. 2507. 268. o
1565 2 -4 7 13 1905. 2601. 299. o
1565 1 4 7 -13 1905. 2601. 299. o
1566 3 6 -7 -2 385. 995. 570. <
1566 2 -5 7 -13 385. 995. 570. <
1566 1 5 7 13 385. 995. 570. <
1567 2 -5 7 13 385. 187. 591. <
1567 1 5 7 -13 385. 187. 591. <
1568 2 -6 7 -13 96. 1886. 298. o
1568 1 6 7 13 96. 1886. 298. o
1569 2 -6 7 13 96. 1088. 300. o
1569 1 6 7 -13 96. 1088. 300. o
1570 2 -7 7 -13 571. 736. 477. <
1570 1 7 7 13 571. 736. 477. <
1571 2 -7 7 13 571. 1212. 487. o
1571 1 7 7 -13 571. 1212. 487. o
1572 2 5 8 -13 334. 943. 321. o
1572 1 -5 8 13 334. 943. 321. o
1573 2 -5 8 13 334. 549. 373. <
1573 1 5 8 -13 334. 549. 373. <
1574 2 -1 8 -13 117. 52. 249. <
1574 1 1 8 13 117. 52. 249. <
1575 2 -1 8 13 117. 311. 311. <
1575 1 1 8 -13 117. 311. 311. <
1576 2 -2 8 -13 64. 135. 249. <
1576 1 2 8 13 64. 135. 249. <
1577 2 -2 8 13 63. 342. 300. <
1577 1 2 8 -13 63. 342. 300. <
1578 2 -3 8 -13 53. 311. 269. <
1578 1 3 8 13 53. 311. 269. <
1579 2 3 8 13 53. 1430. 870. <
1579 1 -3 8 -13 53. 1430. 870. <
1580 3 1 -8 17 53. 1357. 797. <
1580 2 -3 8 13 53. 1357. 797. <
1580 1 3 8 -13 53. 1357. 797. <
1581 2 3 8 13 53. 300. 456. <
1581 1 -3 8 -13 53. 300. 456. <
1582 3 1 -8 17 53. 611. 860. <
1582 2 -3 8 13 53. 611. 860. <
1582 1 3 8 -13 53. 611. 860. <
1583 2 -4 8 -13 40. 798. 259. o
1583 1 4 8 13 40. 798. 259. o
1584 2 -4 8 13 40. 259. 311. <
1584 1 4 8 -13 40. 259. 311. <
1585 3 6 -8 -2 348. 1337. 870. <
1585 2 -5 8 -13 348. 1337. 870. <
1585 1 5 8 13 348. 1337. 870. <
1586 2 -5 8 13 334. 1326. 704. <
1586 1 5 8 -13 334. 1326. 704. <
1587 2 -6 8 -13 40. 715. 279. o
1587 1 6 8 13 40. 715. 279. o
1588 2 -6 8 13 40. 819. 342. o
1588 1 6 8 -13 40. 819. 342. o
1589 2 -1 9 -13 949. 808. 280. o
1589 1 1 9 13 949. 808. 280. o
1590 2 -1 9 13 949. 1098. 342. o
1590 1 1 9 -13 949. 1098. 342. o
1591 2 -2 9 -13 531. 1554. 258. o
1591 1 2 9 13 531. 1554. 258. o
1592 2 -2 9 13 531. 1596. 362. o
1592 1 2 9 -13 531. 1596. 362. o
1593 2 -3 9 -13 112. 933. 258. o
1593 1 3 9 13 112. 933. 258. o
1594 2 3 9 13 112. -83. 953. <
1594 1 -3 9 -13 112. -83. 953. <
1595 3 1 -9 17 132. 984. 901. <
1595 2 -3 9 13 132. 984. 901. <
1595 1 3 9 -13 132. 984. 901. <
1596 2 3 9 13 112. 83. 528. <
1596 1 -3 9 -13 112. 83. 528. <
1597 3 1 -9 17 132. -73. 912. <
1597 2 -3 9 13 132. -73. 912. <
1597 1 3 9 -13 132. -73. 912. <
1598 2 -4 9 -13 500. 2176. 298. o
1598 1 4 9 13 500. 2176. 298. o
1599 2 -4 9 13 500. 1782. 382. o
1599 1 4 9 -13 500. 1782. 382. o
1600 2 -1 10 -13 113. 798. 290. o
1600 1 1 10 13 113. 798. 290. o
1601 2 -1 10 13 112. 684. 300. o
1601 1 1 10 -13 112. 684. 300. o
1602 2 -2 10 -13 195. 1098. 300. o
1602 1 2 10 13 195. 1098. 300. o
1603 2 -2 10 13 195. 922. 352. o
1603 1 2 10 -13 195. 922. 352. o
1604 2 0 0 -14 279589. 328928. 6518. o
1604 1 0 0 14 279589. 328928. 6518. o
1605 2 0 0 14 279555. 309283. 1476. o
1605 1 0 0 -14 279555. 309283. 1476. o
1606 2 0 1 -14 36209. 44636. 460. o
1606 1 0 1 14 36209. 44636. 460. o
1607 2 0 1 14 36218. 44004. 517. o
1607 1 0 1 -14 36218. 44004. 517. o
1608 2 -1 1 -14 10582. 11470. 513. o
1608 1 1 1 14 10582. 11470. 513. o
1609 2 -1 1 14 10576. 10382. 498. o
1609 1 1 1 -14 10576. 10382. 498. o
1610 2 0 2 -14 1068. 715. 384. <
1610 1 0 2 14 1068. 715. 384. <
1611 2 0 2 14 1069. 622. 529. <
1611 1 0 2 -14 1069. 622. 529. <
1612 2 -1 2 -14 22813. 27457. 354. o
1612 1 1 2 14 22813. 27457. 354. o
1613 2 -1 2 14 22806. 26815. 367. o
1613 1 1 2 -14 22806. 26815. 367. o
1614 2 -2 2 -14 148752. 180368. 3305. o
1614 1 2 2 14 148752. 180368. 3305. o
1615 2 2 2 14 148733. 160050. 1227. o
1615 1 -2 2 -14 148733. 160050. 1227. o
1616 3 0 -2 16 148860. 171261. 519. o
1616 2 -2 2 14 148860. 171261. 519. o
1616 1 2 2 -14 148860. 171261. 519. o
1617 2 0 3 -14 20732. 21396. 458. o
1617 1 0 3 14 20732. 21396. 458. o
1618 2 0 3 14 20736. 21489. 604. o
1618 1 0 3 -14 20736. 21489. 604. o
1619 2 -1 3 -14 37066. 26784. 545. o
1619 1 1 3 14 37066. 26784. 545. o
1620 2 -1 3 14 37072. 26235. 617. o
1620 1 1 3 -14 37072. 26235. 617. o
1621 2 -2 3 -14 23502. 28587. 192. o
1621 1 2 3 14 23502. 28587. 192. o
1622 3 0 -3 16 24031. 26318. 767. o
1622 2 -2 3 14 24031. 26318. 767. o
1622 1 2 3 -14 24031. 26318. 767. o
1623 2 2 3 14 23504. 25913. 441. o
1623 1 -2 3 -14 23504. 25913. 441. o
1624 2 -3 3 -14 528. 10. 363. <
1624 1 3 3 14 528. 10. 363. <
1625 2 -3 3 14 529. -83. 466. <
1625 1 3 3 -14 529. -83. 466. <
1626 2 0 4 -14 68133. 65473. 684. o
1626 1 0 4 14 68133. 65473. 684. o
1627 2 0 4 14 68132. 64426. 719. o
1627 1 0 4 -14 68132. 64426. 719. o
1628 2 -1 4 -14 19564. 20318. 351. o
1628 1 1 4 14 19564. 20318. 351. o
1629 2 -1 4 14 19567. 20080. 376. o
1629 1 1 4 -14 19567. 20080. 376. o
1630 2 -2 4 -14 12294. 13822. 260. o
1630 1 2 4 14 12294. 13822. 260. o
1631 3 0 -4 16 12708. 15013. 755. o
1631 2 -2 4 14 12708. 15013. 755. o
1631 1 2 4 -14 12708. 15013. 755. o
1632 2 2 4 14 12301. 13739. 413. o
1632 1 -2 4 -14 12301. 13739. 413. o
1633 2 -3 4 -14 9736. 10682. 270. o
1633 1 3 4 14 9736. 10682. 270. o
1634 2 -3 4 14 9734. 9905. 351. o
1634 1 3 4 -14 9734. 9905. 351. o
1635 2 -4 4 -14 43771. 41942. 499. o
1635 1 4 4 14 43771. 41942. 499. o
1636 2 -4 4 14 43764. 42491. 755. o
1636 1 4 4 -14 43764. 42491. 755. o
1637 2 0 5 -14 16492. 19521. 422. o
1637 1 0 5 14 16492. 19521. 422. o
1638 2 0 5 14 16478. 17645. 508. o
1638 1 0 5 -14 16478. 17645. 508. o
1639 2 -1 5 -14 2244. 2849. 247. o
1639 1 1 5 14 2244. 2849. 247. o
1640 2 -1 5 14 2245. 2808. 310. o
1640 1 1 5 -14 2245. 2808. 310. o
1641 2 -2 5 -14 9721. 7346. 278. o
1641 1 2 5 14 9721. 7346. 278. o
1642 3 0 -5 16 9746. 7926. 587. o
1642 2 -2 5 14 9746. 7926. 587. o
1642 1 2 5 -14 9746. 7926. 587. o
1643 2 2 5 14 9731. 7916. 434. o
1643 1 -2 5 -14 9731. 7916. 434. o
1644 3 0 -5 16 9746. 7315. 825. o
1644 2 -2 5 14 9746. 7315. 825. o
1644 1 2 5 -14 9746. 7315. 825. o
1645 2 2 5 14 9731. 7336. 650. o
1645 1 -2 5 -14 9731. 7336. 650. o
1646 2 -3 5 -14 27237. 20982. 417. o
1646 1 3 5 14 27237. 20982. 417. o
1647 2 -3 5 14 27237. 19738. 470. o
1647 1 3 5 -14 27237. 19738. 470. o
1648 2 -4 5 -14 10235. 10703. 286. o
1648 1 4 5 14 10235. 10703. 286. o
1649 2 -4 5 14 10228. 10144. 374. o
1649 1 4 5 -14 10228. 10144. 374. o
1650 2 -5 5 -14 97. 466. 414. <
1650 1 5 5 14 97. 466. 414. <
1651 2 -5 5 14 96. 601. 476. <
1651 1 5 5 -14 96. 601. 476. <
1652 2 6 6 -14 22050. 28960. 608. o
1652 1 -6 6 14 22050. 28960. 608. o
1653 2 -6 6 14 22054. 27944. 920. o
1653 1 6 6 -14 22054. 27944. 920. o
1654 2 0 6 -14 24311. 37394. 739. o
1654 1 0 6 14 24311. 37394. 739. o
1655 2 0 6 14 24311. 34762. 461. o
1655 1 0 6 -14 24311. 34762. 461. o
1656 2 -1 6 -14 7749. 8921. 291. o
1656 1 1 6 14 7749. 8921. 291. o
1657 2 -1 6 14 7746. 8486. 327. o
1657 1 1 6 -14 7746. 8486. 327. o
1658 2 -2 6 -14 19002. 11491. 391. o
1658 1 2 6 14 19002. 11491. 391. o
1659 2 2 6 14 19001. 12724. 848. o
1659 1 -2 6 -14 19001. 12724. 848. o
1660 3 0 -6 16 19006. 13314. 876. o
1660 2 -2 6 14 19006. 13314. 876. o
1660 1 2 6 -14 19006. 13314. 876. o
1661 2 2 6 14 19001. 12361. 491. o
1661 1 -2 6 -14 19001. 12361. 491. o
1662 3 0 -6 16 19006. 11936. 981. o
1662 2 -2 6 14 19006. 11936. 981. o
1662 1 2 6 -14 19006. 11936. 981. o
1663 2 2 6 14 19001. 11988. 1530. o
1663 1 -2 6 -14 19001. 11988. 1530. o
1664 2 -3 6 -14 10446. 7750. 350. o
1664 1 3 6 14 10446. 7750. 350. o
1665 2 -3 6 14 10443. 7025. 373. o
1665 1 3 6 -14 10443. 7025. 373. o
1666 2 -4 6 -14 3765. 3554. 280. o
1666 1 4 6 14 3765. 3554. 280. o
1667 2 -4 6 14 3765. 3430. 322. o
1667 1 4 6 -14 3765. 3430. 322. o
1668 2 -5 6 -14 3271. 3544. 268. o
1668 1 5 6 14 3271. 3544. 268. o
1669 2 -5 6 14 3275. 3367. 300. o
1669 1 5 6 -14 3275. 3367. 300. o
1670 3 7 -6 -1 22054. 27519. 848. o
1670 2 -6 6 -14 22054. 27519. 848. o
1670 1 6 6 14 22054. 27519. 848. o
1671 2 -6 6 14 22054. 24919. 742. o
1671 1 6 6 -14 22054. 24919. 742. o
1672 2 6 7 -14 3040. 2891. 353. o
1672 1 -6 7 14 3040. 2891. 353. o
1673 2 -6 7 14 3037. 3015. 394. o
1673 1 6 7 -14 3037. 3015. 394. o
1674 2 0 7 -14 4042. 2829. 335. o
1674 1 0 7 14 4042. 2829. 335. o
1675 2 0 7 14 4047. 3512. 478. o
1675 1 0 7 -14 4047. 3512. 478. o
1676 2 -1 7 -14 5725. 4973. 263. o
1676 1 1 7 14 5725. 4973. 263. o
1677 2 -1 7 14 5723. 4922. 345. o
1677 1 1 7 -14 5723. 4922. 345. o
1678 2 -2 7 -14 7823. 7781. 280. o
1678 1 2 7 14 7823. 7781. 280. o
1679 3 0 -7 16 7877. 8817. 629. o
1679 2 -2 7 14 7877. 8817. 629. o
1679 1 2 7 -14 7877. 8817. 629. o
1680 2 2 7 14 7824. 7823. 373. o
1680 1 -2 7 -14 7824. 7823. 373. o
1681 3 0 -7 16 7877. 7470. 975. o
1681 2 -2 7 14 7877. 7470. 975. o
1681 1 2 7 -14 7877. 7470. 975. o
1682 2 -3 7 -14 1319. 1803. 289. o
1682 1 3 7 14 1319. 1803. 289. o
1683 2 -3 7 14 1320. 1451. 311. o
1683 1 3 7 -14 1320. 1451. 311. o
1684 2 -4 7 -14 2276. 1886. 281. o
1684 1 4 7 14 2276. 1886. 281. o
1685 2 -4 7 14 2275. 2155. 311. o
1685 1 4 7 -14 2275. 2155. 311. o
1686 2 -5 7 -14 3622. 3792. 279. o
1686 1 5 7 14 3622. 3792. 279. o
1687 2 -5 7 14 3622. 3709. 352. o
1687 1 5 7 -14 3622. 3709. 352. o
1688 3 7 -7 -1 3053. 3492. 787. o
1688 2 -6 7 -14 3053. 3492. 787. o
1688 1 6 7 14 3053. 3492. 787. o
1689 2 -6 7 14 3037. 2414. 653. o
1689 1 6 7 -14 3037. 2414. 653. o
1690 2 -7 7 -14 658. 1150. 435. o
1690 1 7 7 14 658. 1150. 435. o
1691 2 -7 7 14 659. 1647. 507. o
1691 1 7 7 -14 659. 1647. 507. o
1692 2 6 8 -14 53. 798. 331. o
1692 1 -6 8 14 53. 798. 331. o
1693 2 -6 8 14 52. 953. 393. o
1693 1 6 8 -14 52. 953. 393. o
1694 2 0 8 -14 6563. 1886. 384. o
1694 1 0 8 14 6563. 1886. 384. o
1695 2 0 8 14 6564. 1958. 496. o
1695 1 0 8 -14 6564. 1958. 496. o
1696 2 -1 8 -14 4263. 3243. 263. o
1696 1 1 8 14 4263. 3243. 263. o
1697 2 -1 8 14 4264. 3202. 345. o
1697 1 1 8 -14 4264. 3202. 345. o
1698 2 -2 8 -14 6653. 10423. 233. o
1698 1 2 8 14 6653. 10423. 233. o
1699 2 2 8 14 6653. 9149. 874. o
1699 1 -2 8 -14 6653. 9149. 874. o
1700 3 0 -8 16 6835. 10745. 869. o
1700 2 -2 8 14 6835. 10745. 869. o
1700 1 2 8 -14 6835. 10745. 869. o
1701 2 2 8 14 6653. 9905. 1268. o
1701 1 -2 8 -14 6653. 9905. 1268. o
1702 3 0 -8 16 6835. 10910. 848. o
1702 2 -2 8 14 6835. 10910. 848. o
1702 1 2 8 -14 6835. 10910. 848. o
1703 2 2 8 14 6653. 9885. 471. o
1703 1 -2 8 -14 6653. 9885. 471. o
1704 2 -3 8 -14 3241. 3202. 301. o
1704 1 3 8 14 3241. 3202. 301. o
1705 2 -3 8 14 3241. 3108. 311. o
1705 1 3 8 -14 3241. 3108. 311. o
1706 2 -4 8 -14 12491. 12278. 334. o
1706 1 4 8 14 12491. 12278. 334. o
1707 2 -4 8 14 12493. 11190. 384. o
1707 1 4 8 -14 12493. 11190. 384. o
1708 2 -5 8 -14 3249. 2052. 293. o
1708 1 5 8 14 3249. 2052. 293. o
1709 2 -5 8 14 3246. 2217. 344. o
1709 1 5 8 -14 3246. 2217. 344. o
1710 3 7 -8 -1 53. 2538. 942. o
1710 2 -6 8 -14 53. 2538. 942. o
1710 1 6 8 14 53. 2538. 942. o
1711 2 -6 8 14 52. 829. 746. <
1711 1 6 8 -14 52. 829. 746. <
1712 2 0 9 -14 4359. 4010. 395. o
1712 1 0 9 14 4359. 4010. 395. o
1713 2 0 9 14 4354. 3533. 427. o
1713 1 0 9 -14 4354. 3533. 427. o
1714 2 -1 9 -14 2073. 2331. 290. o
1714 1 1 9 14 2073. 2331. 290. o
1715 2 -1 9 14 2075. 2766. 351. o
1715 1 1 9 -14 2075. 2766. 351. o
1716 2 -2 9 -14 906. 1347. 279. o
1716 1 2 9 14 906. 1347. 279. o
1717 2 2 9 14 905. 1575. 746. o
1717 1 -2 9 -14 905. 1575. 746. o
1718 3 0 -9 16 929. 1471. 590. o
1718 2 -2 9 14 929. 1471. 590. o
1718 1 2 9 -14 929. 1471. 590. o
1719 2 2 9 14 905. 1015. 528. <
1719 1 -2 9 -14 905. 1015. 528. <
1720 2 -3 9 -14 474. 881. 279. o
1720 1 3 9 14 474. 881. 279. o
1721 2 -3 9 14 473. 1243. 362. o
1721 1 3 9 -14 473. 1243. 362. o
1722 2 -4 9 -14 2691. 2673. 321. o
1722 1 4 9 14 2691. 2673. 321. o
1723 2 -4 9 14 2694. 2238. 405. o
1723 1 4 9 -14 2694. 2238. 405. o
1724 2 0 10 -14 1795. 2259. 403. o
1724 1 0 10 14 1795. 2259. 403. o
1725 2 0 10 14 1795. 2145. 445. o
1725 1 0 10 -14 1795. 2145. 445. o
1726 2 -1 10 -14 1164. 943. 301. o
1726 1 1 10 14 1164. 943. 301. o
1727 2 -1 10 14 1164. 1482. 331. o
1727 1 1 10 -14 1164. 1482. 331. o
1728 2 -1 1 -15 65352. 79450. 1582. o
1728 1 1 1 15 65352. 79450. 1582. o
1729 3 -1 -1 15 65724. 80393. 1119. o
1729 2 -1 1 15 65724. 80393. 1119. o
1729 1 1 1 -15 65724. 80393. 1119. o
1730 2 1 1 15 65366. 68498. 1655. o
1730 1 -1 1 -15 65366. 68498. 1655. o
1731 3 -1 -1 15 65724. 78445. 1277. o
1731 2 -1 1 15 65724. 78445. 1277. o
1731 1 1 1 -15 65724. 78445. 1277. o
1732 2 1 1 15 65366. 78756. 1290. o
1732 1 -1 1 -15 65366. 78756. 1290. o
1733 2 -1 2 -15 18183. 17293. 374. o
1733 1 1 2 15 18183. 17293. 374. o
1734 3 -1 -2 15 18285. 17055. 1021. o
1734 2 -1 2 15 18285. 17055. 1021. o
1734 1 1 2 -15 18285. 17055. 1021. o
1735 2 1 2 15 18186. 16630. 461. o
1735 1 -1 2 -15 18186. 16630. 461. o
1736 2 -2 2 -15 2607. 922. 364. o
1736 1 2 2 15 2607. 922. 364. o
1737 2 -2 2 15 2602. 964. 519. <
1737 1 2 2 -15 2602. 964. 519. <
1738 2 -1 3 -15 29926. 31788. 329. o
1738 1 1 3 15 29926. 31788. 329. o
1739 2 1 3 15 29921. 29851. 778. o
1739 1 -1 3 -15 29921. 29851. 778. o
1740 3 -1 -3 15 30085. 32213. 807. o
1740 2 -1 3 15 30085. 32213. 807. o
1740 1 1 3 -15 30085. 32213. 807. o
1741 2 1 3 15 29921. 30120. 567. o
1741 1 -1 3 -15 29921. 30120. 567. o
1742 2 -2 3 -15 1394. 1782. 279. o
1742 1 2 3 15 1394. 1782. 279. o
1743 2 -2 3 15 1395. 1451. 331. o
1743 1 2 3 -15 1395. 1451. 331. o
1744 2 -3 3 -15 14935. 15801. 395. o
1744 1 3 3 15 14935. 15801. 395. o
1745 2 -3 3 15 14929. 14827. 550. o
1745 1 3 3 -15 14929. 14827. 550. o
1746 2 -1 4 -15 20029. 21520. 271. o
1746 1 1 4 15 20029. 21520. 271. o
1747 3 -1 -4 15 20134. 19831. 666. o
1747 2 -1 4 15 20134. 19831. 666. o
1747 1 1 4 -15 20134. 19831. 666. o
1748 2 1 4 15 20025. 21127. 464. o
1748 1 -1 4 -15 20025. 21127. 464. o
1749 2 -2 4 -15 2474. 777. 241. o
1749 1 2 4 15 2474. 777. 241. o
1750 2 -2 4 15 2473. 922. 292. o
1750 1 2 4 -15 2473. 922. 292. o
1751 2 -3 4 -15 3189. 3896. 246. o
1751 1 3 4 15 3189. 3896. 246. o
1752 2 -3 4 15 3190. 4072. 339. o
1752 1 3 4 -15 3190. 4072. 339. o
1753 2 -4 4 -15 5573. 2476. 350. o
1753 1 4 4 15 5573. 2476. 350. o
1754 2 -4 4 15 5577. 2000. 606. o
1754 1 4 4 -15 5577. 2000. 606. o
1755 2 -1 5 -15 9968. 8351. 283. o
1755 1 1 5 15 9968. 8351. 283. o
1756 3 -1 -5 15 10016. 8320. 772. o
1756 2 -1 5 15 10016. 8320. 772. o
1756 1 1 5 -15 10016. 8320. 772. o
1757 2 1 5 15 9962. 8320. 464. o
1757 1 -1 5 -15 9962. 8320. 464. o
1758 3 -1 -5 15 10016. 7046. 857. o
1758 2 -1 5 15 10016. 7046. 857. o
1758 1 1 5 -15 10016. 7046. 857. o
1759 2 1 5 15 9962. 8185. 937. o
1759 1 -1 5 -15 9962. 8185. 937. o
1760 2 -2 5 -15 468. 477. 259. <
1760 1 2 5 15 468. 477. 259. <
1761 2 -2 5 15 467. 446. 290. <
1761 1 2 5 -15 467. 446. 290. <
1762 2 -3 5 -15 12897. 13770. 257. o
1762 1 3 5 15 12897. 13770. 257. o
1763 2 -3 5 15 12894. 13273. 338. o
1763 1 3 5 -15 12894. 13273. 338. o
1764 2 -4 5 -15 1897. 2166. 248. o
1764 1 4 5 15 1897. 2166. 248. o
1765 2 -4 5 15 1897. 1958. 363. o
1765 1 4 5 -15 1897. 1958. 363. o
1766 2 -5 5 -15 6653. 7180. 349. o
1766 1 5 5 15 6653. 7180. 349. o
1767 2 -5 5 15 6662. 6807. 549. o
1767 1 5 5 -15 6662. 6807. 549. o
1768 2 -1 6 -15 4000. 5357. 295. o
1768 1 1 6 15 4000. 5357. 295. o
1769 2 1 6 15 3998. 4994. 609. o
1769 1 -1 6 -15 3998. 4994. 609. o
1770 3 -1 -6 15 4020. 6061. 596. o
1770 2 -1 6 15 4020. 6061. 596. o
1770 1 1 6 -15 4020. 6061. 596. o
1771 2 1 6 15 3998. 4466. 849. o
1771 1 -1 6 -15 3998. 4466. 849. o
1772 3 -1 -6 15 4020. 4404. 901. o
1772 2 -1 6 15 4020. 4404. 901. o
1772 1 1 6 -15 4020. 4404. 901. o
1773 2 1 6 15 3998. 4466. 600. o
1773 1 -1 6 -15 3998. 4466. 600. o
1774 2 -2 6 -15 976. 860. 290. o
1774 1 2 6 15 976. 860. 290. o
1775 2 -2 6 15 974. 622. 311. <
1775 1 2 6 -15 974. 622. 311. <
1776 2 -3 6 -15 45. 363. 259. <
1776 1 3 6 15 45. 363. 259. <
1777 2 -3 6 15 45. 756. 279. o
1777 1 3 6 -15 45. 756. 279. o
1778 2 -4 6 -15 542. 135. 249. <
1778 1 4 6 15 542. 135. 249. <
1779 2 -4 6 15 543. 207. 290. <
1779 1 4 6 -15 543. 207. 290. <
1780 2 -5 6 -15 15. 311. 269. <
1780 1 5 6 15 15. 311. 269. <
1781 2 -5 6 15 16. 259. 352. <
1781 1 5 6 -15 16. 259. 352. <
1782 2 -6 6 -15 990. 435. 394. <
1782 1 6 6 15 990. 435. 394. <
1783 2 -6 6 15 992. 746. 508. <
1783 1 6 6 -15 992. 746. 508. <
1784 2 7 7 -15 2694. 3274. 403. o
1784 1 -7 7 15 2694. 3274. 403. o
1785 2 -7 7 15 2701. 3699. 900. o
1785 1 7 7 -15 2701. 3699. 900. o
1786 2 -1 7 -15 6581. 3295. 273. o
1786 1 1 7 15 6581. 3295. 273. o
1787 3 -1 -7 15 6608. 3606. 607. o
1787 2 -1 7 15 6608. 3606. 607. o
1787 1 1 7 -15 6608. 3606. 607. o
1788 2 1 7 15 6573. 3046. 485. o
1788 1 -1 7 -15 6573. 3046. 485. o
1789 3 -1 -7 15 6608. 2715. 1030. o
1789 2 -1 7 15 6608. 2715. 1030. o
1789 1 1 7 -15 6608. 2715. 1030. o
1790 2 1 7 15 6573. 2798. 597. o
1790 1 -1 7 -15 6573. 2798. 597. o
1791 2 -2 7 -15 2368. 2984. 268. o
1791 1 2 7 15 2368. 2984. 268. o
1792 2 -2 7 15 2367. 3015. 309. o
1792 1 2 7 -15 2367. 3015. 309. o
1793 2 -3 7 -15 3546. 2870. 302. o
1793 1 3 7 15 3546. 2870. 302. o
1794 2 -3 7 15 3546. 2694. 313. o
1794 1 3 7 -15 3546. 2694. 313. o
1795 2 -4 7 -15 1452. 2352. 309. o
1795 1 4 7 15 1452. 2352. 309. o
1796 2 -4 7 15 1454. 1927. 372. o
1796 1 4 7 -15 1454. 1927. 372. o
1797 2 -5 7 -15 9309. 9999. 316. o
1797 1 5 7 15 9309. 9999. 316. o
1798 2 -5 7 15 9318. 10113. 399. o
1798 1 5 7 -15 9318. 10113. 399. o
1799 2 -6 7 -15 1478. 1834. 279. o
1799 1 6 7 15 1478. 1834. 279. o
1800 2 -6 7 15 1480. 1596. 404. o
1800 1 6 7 -15 1480. 1596. 404. o
1801 3 8 -7 0 2694. 2932. 808. o
1801 2 -7 7 -15 2694. 2932. 808. o
1801 1 7 7 15 2694. 2932. 808. o
1802 2 -7 7 15 2701. 3326. 693. o
1802 1 7 7 -15 2701. 3326. 693. o
1803 2 -1 8 -15 196. 528. 249. o
1803 1 1 8 15 196. 528. 249. o
1804 2 1 8 15 195. 964. 787. <
1804 1 -1 8 -15 195. 964. 787. <
1805 3 -1 -8 15 196. 425. 570. <
1805 2 -1 8 15 196. 425. 570. <
1805 1 1 8 -15 196. 425. 570. <
1806 2 1 8 15 195. 901. 476. <
1806 1 -1 8 -15 195. 901. 476. <
1807 2 -2 8 -15 111. 383. 249. <
1807 1 2 8 15 111. 383. 249. <
1808 2 -2 8 15 112. 218. 332. <
1808 1 2 8 -15 112. 218. 332. <
1809 2 -3 8 -15 28. -155. 290. <
1809 1 3 8 15 28. -155. 290. <
1810 2 -3 8 15 28. 580. 342. <
1810 1 3 8 -15 28. 580. 342. <
1811 2 -4 8 -15 150. 622. 280. o
1811 1 4 8 15 150. 622. 280. o
1812 2 -4 8 15 151. 622. 331. <
1812 1 4 8 -15 151. 622. 331. <
1813 2 -5 8 -15 230. 570. 280. o
1813 1 5 8 15 230. 570. 280. o
1814 2 -5 8 15 230. 456. 373. <
1814 1 5 8 -15 230. 456. 373. <
1815 2 -6 8 -15 101. 663. 300. o
1815 1 6 8 15 101. 663. 300. o
1816 2 -6 8 15 101. 560. 383. <
1816 1 6 8 -15 101. 560. 383. <
1817 2 -1 9 -15 2102. 1720. 270. o
1817 1 1 9 15 2102. 1720. 270. o
1818 3 -1 -9 15 2108. 1865. 632. o
1818 2 -1 9 15 2108. 1865. 632. o
1818 1 1 9 -15 2108. 1865. 632. o
1819 2 1 9 15 2097. 1306. 871. <
1819 1 -1 9 -15 2097. 1306. 871. <
1820 3 -1 -9 15 2108. 1751. 1088. <
1820 2 -1 9 15 2108. 1751. 1088. <
1820 1 1 9 -15 2108. 1751. 1088. <
1821 2 1 9 15 2097. 1233. 457. o
1821 1 -1 9 -15 2097. 1233. 457. o
1822 2 -2 9 -15 349. 1088. 279. o
1822 1 2 9 15 349. 1088. 279. o
1823 2 -2 9 15 349. 1109. 373. o
1823 1 2 9 -15 349. 1109. 373. o
1824 2 -3 9 -15 3660. 3854. 310. o
1824 1 3 9 15 3660. 3854. 310. o
1825 2 -3 9 15 3657. 3844. 414. o
1825 1 3 9 -15 3657. 3844. 414. o
1826 2 -4 9 -15 1574. 2518. 299. o
1826 1 4 9 15 1574. 2518. 299. o
1827 2 -4 9 15 1574. 2715. 413. o
1827 1 4 9 -15 1574. 2715. 413. o
1828 2 -1 10 -15 585. 1917. 320. o
1828 1 1 10 15 585. 1917. 320. o
1829 3 -1 -10 15 589. 2404. 734. o
1829 2 -1 10 15 589. 2404. 734. o
1829 1 1 10 -15 589. 2404. 734. o
1830 2 1 10 15 586. 1637. 403. o
1830 1 -1 10 -15 586. 1637. 403. o
1831 2 8 0 -16 33710. 34959. 646. o
1831 1 -8 0 16 33710. 34959. 646. o
1832 3 2 0 -14 58005. 64965. 1224. o
1832 2 0 0 -16 58005. 64965. 1224. o
1832 1 0 0 16 58005. 64965. 1224. o
1833 3 -2 0 14 57877. 64758. 1248. o
1833 2 0 0 16 57877. 64758. 1248. o
1833 1 0 0 -16 57877. 64758. 1248. o
1834 2 -1 0 -16 8962. 14982. 620. o
1834 1 1 0 16 8962. 14982. 620. o
1835 2 -1 0 16 8960. 14454. 613. o
1835 1 1 0 -16 8960. 14454. 613. o
1836 2 -2 0 -16 22968. 26027. 729. o
1836 1 2 0 16 22968. 26027. 729. o
1837 2 -2 0 16 23023. 24991. 739. o
1837 1 2 0 -16 23023. 24991. 739. o
1838 2 -3 0 -16 97060. 108358. 744. o
1838 1 3 0 16 97060. 108358. 744. o
1839 2 -3 0 16 97050. 102348. 925. o
1839 1 3 0 -16 97050. 102348. 925. o
1840 2 -4 0 -16 75069. 82196. 647. o
1840 1 4 0 16 75069. 82196. 647. o
1841 2 -4 0 16 75018. 73554. 913. o
1841 1 4 0 -16 75018. 73554. 913. o
1842 2 -5 0 -16 2685. 642. 499. <
1842 1 5 0 16 2685. 642. 499. <
1843 2 -5 0 16 2679. 736. 530. <
1843 1 5 0 -16 2679. 736. 530. <
1844 2 -6 0 -16 883. 2228. 444. o
1844 1 6 0 16 883. 2228. 444. o
1845 2 -6 0 16 878. 2580. 610. o
1845 1 6 0 -16 878. 2580. 610. o
1846 2 -7 0 -16 9781. 8527. 452. o
1846 1 7 0 16 9781. 8527. 452. o
1847 2 -7 0 16 9774. 9242. 944. o
1847 1 7 0 -16 9774. 9242. 944. o
1848 2 8 0 16 33686. 33995. 1096. o
1848 1 -8 0 -16 33686. 33995. 1096. o
1849 2 -9 0 -16 4339. 4321. 477. o
1849 1 9 0 16 4339. 4321. 477. o
1850 2 -9 0 16 4344. 4694. 559. o
1850 1 9 0 -16 4344. 4694. 559. o
1851 2 -10 0 -16 85. 435. 549. <
1851 1 10 0 16 85. 435. 549. <
1852 2 -10 0 16 85. 591. 622. <
1852 1 10 0 -16 85. 591. 622. <
1853 3 2 -1 -14 9088. 15552. 693. o
1853 2 0 1 -16 9088. 15552. 693. o
1853 1 0 1 16 9088. 15552. 693. o
1854 3 -2 -1 14 9086. 14589. 688. o
1854 2 0 1 16 9086. 14589. 688. o
1854 1 0 1 -16 9086. 14589. 688. o
1855 2 -1 1 -16 25007. 23126. 580. o
1855 1 1 1 16 25007. 23126. 580. o
1856 2 -1 1 16 25009. 22152. 590. o
1856 1 1 1 -16 25009. 22152. 590. o
1857 3 2 -2 -14 23788. 23302. 678. o
1857 2 0 2 -16 23788. 23302. 678. o
1857 1 0 2 16 23788. 23302. 678. o
1858 3 -2 -2 14 23842. 25903. 981. o
1858 2 0 2 16 23842. 25903. 981. o
1858 1 0 2 -16 23842. 25903. 981. o
1859 2 -1 2 -16 54837. 59214. 270. o
1859 1 1 2 16 54837. 59214. 270. o
1860 2 -1 2 16 54845. 58323. 416. o
1860 1 1 2 -16 54845. 58323. 416. o
1861 2 -2 2 -16 64871. 71057. 600. o
1861 1 2 2 16 64871. 71057. 600. o
1862 2 -2 2 16 64825. 70021. 1020. o
1862 1 2 2 -16 64825. 70021. 1020. o
1863 3 2 -3 -14 97190. 99157. 974. o
1863 2 0 3 -16 97190. 99157. 974. o
1863 1 0 3 16 97190. 99157. 974. o
1864 3 -2 -3 14 97180. 101095. 1089. o
1864 2 0 3 16 97180. 101095. 1089. o
1864 1 0 3 -16 97180. 101095. 1089. o
1865 2 -1 3 -16 6024. 8362. 273. o
1865 1 1 3 16 6024. 8362. 273. o
1866 2 -1 3 16 6022. 8341. 339. o
1866 1 1 3 -16 6022. 8341. 339. o
1867 2 -2 3 -16 1913. 2269. 248. o
1867 1 2 3 16 1913. 2269. 248. o
1868 2 -2 3 16 1913. 2062. 331. o
1868 1 2 3 -16 1913. 2062. 331. o
1869 2 -3 3 -16 30073. 23033. 542. o
1869 1 3 3 16 30073. 23033. 542. o
1870 2 -3 3 16 30078. 21603. 687. o
1870 1 3 3 -16 30078. 21603. 687. o
1871 3 2 -4 -14 75137. 80320. 796. o
1871 2 0 4 -16 75137. 80320. 796. o
1871 1 0 4 16 75137. 80320. 796. o
1872 3 -2 -4 14 75086. 88195. 830. o
1872 2 0 4 16 75086. 88195. 830. o
1872 1 0 4 -16 75086. 88195. 830. o
1873 2 -1 4 -16 15134. 16982. 238. o
1873 1 1 4 16 15134. 16982. 238. o
1874 2 -1 4 16 15133. 16236. 350. o
1874 1 1 4 -16 15133. 16236. 350. o
1875 2 -2 4 -16 1927. 1461. 249. o
1875 1 2 4 16 1927. 1461. 249. o
1876 2 -2 4 16 1939. 1440. 312. o
1876 1 2 4 -16 1939. 1440. 312. o
1877 2 -3 4 -16 18215. 16972. 300. o
1877 1 3 4 16 18215. 16972. 300. o
1878 2 -3 4 16 18213. 16402. 444. o
1878 1 3 4 -16 18213. 16402. 444. o
1879 2 -4 4 -16 50546. 48118. 521. o
1879 1 4 4 16 50546. 48118. 521. o
1880 2 -4 4 16 50544. 51454. 719. o
1880 1 4 4 -16 50544. 51454. 719. o
1881 3 2 -5 -14 2738. -52. 519. <
1881 2 0 5 -16 2738. -52. 519. <
1881 1 0 5 16 2738. -52. 519. <
1882 3 -2 -5 14 2733. 332. 695. <
1882 2 0 5 16 2733. 332. 695. <
1882 1 0 5 -16 2733. 332. 695. <
1883 2 -1 5 -16 12707. 11283. 335. o
1883 1 1 5 16 12707. 11283. 335. o
1884 2 -1 5 16 12705. 11553. 393. o
1884 1 1 5 -16 12705. 11553. 393. o
1885 2 -2 5 -16 30746. 33104. 276. o
1885 1 2 5 16 30746. 33104. 276. o
1886 2 -2 5 16 30732. 32752. 370. o
1886 1 2 5 -16 30732. 32752. 370. o
1887 2 -3 5 -16 2041. 1689. 249. o
1887 1 3 5 16 2041. 1689. 249. o
1888 2 -3 5 16 2042. 1917. 321. o
1888 1 3 5 -16 2042. 1917. 321. o
1889 2 -4 5 -16 7414. 6362. 266. o
1889 1 4 5 16 7414. 6362. 266. o
1890 2 -4 5 16 7420. 6393. 409. o
1890 1 4 5 -16 7420. 6393. 409. o
1891 2 -5 5 -16 8702. 7460. 360. o
1891 1 5 5 16 8702. 7460. 360. o
1892 2 -5 5 16 8713. 6849. 607. o
1892 1 5 5 -16 8713. 6849. 607. o
1893 3 2 -6 -14 987. 1813. 663. o
1893 2 0 6 -16 987. 1813. 663. o
1893 1 0 6 16 987. 1813. 663. o
1894 3 -2 -6 14 982. 1513. 611. o
1894 2 0 6 16 982. 1513. 611. o
1894 1 0 6 -16 982. 1513. 611. o
1895 2 -1 6 -16 6779. 4849. 280. o
1895 1 1 6 16 6779. 4849. 280. o
1896 2 -1 6 16 6780. 5098. 359. o
1896 1 1 6 -16 6780. 5098. 359. o
1897 2 -2 6 -16 54884. 59484. 1188. o
1897 1 2 6 16 54884. 59484. 1188. o
1898 2 -2 6 16 54853. 58189. 296. o
1898 1 2 6 -16 54853. 58189. 296. o
1899 2 -3 6 -16 15764. 16340. 271. o
1899 1 3 6 16 15764. 16340. 271. o
1900 2 -3 6 16 15769. 17055. 357. o
1900 1 3 6 -16 15769. 17055. 357. o
1901 2 -4 6 -16 1032. 383. 280. <
1901 1 4 6 16 1032. 383. 280. <
1902 2 -4 6 16 1041. 290. 342. <
1902 1 4 6 -16 1041. 290. 342. <
1903 2 -5 6 -16 1494. 187. 270. <
1903 1 5 6 16 1494. 187. 270. <
1904 2 -5 6 16 1493. 819. 363. o
1904 1 5 6 -16 1493. 819. 363. o
1905 2 -6 6 -16 15435. 13283. 473. o
1905 1 6 6 16 15435. 13283. 473. o
1906 2 -6 6 16 15429. 11449. 623. o
1906 1 6 6 -16 15429. 11449. 623. o
1907 3 2 -7 -14 9824. 9491. 675. o
1907 2 0 7 -16 9824. 9491. 675. o
1907 1 0 7 16 9824. 9491. 675. o
1908 3 -2 -7 14 9817. 9729. 715. o
1908 2 0 7 16 9817. 9729. 715. o
1908 1 0 7 -16 9817. 9729. 715. o
1909 2 -1 7 -16 2958. 3699. 256. o
1909 1 1 7 16 2958. 3699. 256. o
1910 2 -1 7 16 2960. 3471. 320. o
1910 1 1 7 -16 2960. 3471. 320. o
1911 2 -2 7 -16 3792. 2300. 284. o
1911 1 2 7 16 3792. 2300. 284. o
1912 2 -2 7 16 3792. 2445. 304. o
1912 1 2 7 -16 3792. 2445. 304. o
1913 2 -3 7 -16 4102. 4590. 288. o
1913 1 3 7 16 4102. 4590. 288. o
1914 2 -3 7 16 4100. 4559. 320. o
1914 1 3 7 -16 4100. 4559. 320. o
1915 2 -4 7 -16 4285. 4155. 291. o
1915 1 4 7 16 4285. 4155. 291. o
1916 2 -4 7 16 4285. 3730. 323. o
1916 1 4 7 -16 4285. 3730. 323. o
1917 2 -5 7 -16 1666. 1533. 311. o
1917 1 5 7 16 1666. 1533. 311. o
1918 2 -5 7 16 1666. 2041. 404. o
1918 1 5 7 -16 1666. 2041. 404. o
1919 2 -6 7 -16 3374. 2829. 292. o
1919 1 6 7 16 3374. 2829. 292. o
1920 2 -6 7 16 3376. 2342. 447. o
1920 1 6 7 -16 3376. 2342. 447. o
1921 2 -7 7 -16 1193. 2922. 454. o
1921 1 7 7 16 1193. 2922. 454. o
1922 2 -7 7 16 1193. 1409. 632. o
1922 1 7 7 -16 1193. 1409. 632. o
1923 3 2 -8 -14 33746. 36720. 783. o
1923 2 0 8 -16 33746. 36720. 783. o
1923 1 0 8 16 33746. 36720. 783. o
1924 3 -2 -8 14 33722. 38316. 839. o
1924 2 0 8 16 33722. 38316. 839. o
1924 1 0 8 -16 33722. 38316. 839. o
1925 2 -1 8 -16 6142. 5502. 273. o
1925 1 1 8 16 6142. 5502. 273. o
1926 2 -1 8 16 6141. 6144. 352. o
1926 1 1 8 -16 6141. 6144. 352. o
1927 2 -2 8 -16 352. 995. 259. o
1927 1 2 8 16 352. 995. 259. o
1928 2 -2 8 16 350. 1316. 341. o
1928 1 2 8 -16 350. 1316. 341. o
1929 2 -3 8 -16 1147. 166. 311. <
1929 1 3 8 16 1147. 166. 311. <
1930 2 -3 8 16 1147. 591. 373. <
1930 1 3 8 -16 1147. 591. 373. <
1931 2 -4 8 -16 14812. 14350. 317. o
1931 1 4 8 16 14812. 14350. 317. o
1932 2 -4 8 16 14806. 14226. 379. o
1932 1 4 8 -16 14806. 14226. 379. o
1933 2 -5 8 -16 5446. 5129. 323. o
1933 1 5 8 16 5446. 5129. 323. o
1934 2 -5 8 16 5449. 5004. 375. o
1934 1 5 8 -16 5449. 5004. 375. o
1935 2 -6 8 -16 897. 1015. 290. o
1935 1 6 8 16 897. 1015. 290. o
1936 2 -6 8 16 902. 787. 404. <
1936 1 6 8 -16 902. 787. 404. <
1937 3 2 -9 -14 4344. 4227. 643. o
1937 2 0 9 -16 4344. 4227. 643. o
1937 1 0 9 16 4344. 4227. 643. o
1938 3 -2 -9 14 4349. 4290. 736. o
1938 2 0 9 16 4349. 4290. 736. o
1938 1 0 9 -16 4349. 4290. 736. o
1939 2 -1 9 -16 1292. 2052. 278. o
1939 1 1 9 16 1292. 2052. 278. o
1940 2 -1 9 16 1291. 1482. 362. o
1940 1 1 9 -16 1291. 1482. 362. o
1941 2 -2 9 -16 1435. 1119. 280. o
1941 1 2 9 16 1435. 1119. 280. o
1942 2 -2 9 16 1434. 1119. 384. o
1942 1 2 9 -16 1434. 1119. 384. o
1943 2 -3 9 -16 2325. 2808. 320. o
1943 1 3 9 16 2325. 2808. 320. o
1944 2 -3 9 16 2326. 2476. 414. o
1944 1 3 9 -16 2326. 2476. 414. o
1945 2 -4 9 -16 1583. 1606. 332. o
1945 1 4 9 16 1583. 1606. 332. o
1946 2 -4 9 16 1583. 1637. 373. o
1946 1 4 9 -16 1583. 1637. 373. o
1947 3 2 -10 -14 113. 1098. 652. <
1947 2 0 10 -16 113. 1098. 652. <
1947 1 0 10 16 113. 1098. 652. <
1948 3 -2 -10 14 112. 73. 756. <
1948 2 0 10 16 112. 73. 756. <
1948 1 0 10 -16 112. 73. 756. <
1949 2 1 1 -17 50126. 63670. 636. o
1949 1 -1 1 17 50126. 63670. 636. o
1950 2 -1 1 17 50136. 60551. 636. o
1950 1 1 1 -17 50136. 60551. 636. o
1951 3 3 -1 -13 50136. 64157. 779. o
1951 2 -1 1 -17 50136. 64157. 779. o
1951 1 1 1 17 50136. 64157. 779. o
1952 2 -1 1 17 50136. 58147. 844. o
1952 1 1 1 -17 50136. 58147. 844. o
1953 2 1 2 -17 261. 363. 300. <
1953 1 -1 2 17 261. 363. 300. <
1954 2 -1 2 17 260. 611. 331. <
1954 1 1 2 -17 260. 611. 331. <
1955 3 3 -2 -13 273. 591. 611. <
1955 2 -1 2 -17 273. 591. 611. <
1955 1 1 2 17 273. 591. 611. <
1956 2 -1 2 17 260. 425. 642. <
1956 1 1 2 -17 260. 425. 642. <
1957 2 -2 2 -17 5685. 3699. 400. o
1957 1 2 2 17 5685. 3699. 400. o
1958 2 -2 2 17 5681. 3409. 605. o
1958 1 2 2 -17 5681. 3409. 605. o
1959 2 1 3 -17 1283. 2228. 288. o
1959 1 -1 3 17 1283. 2228. 288. o
1960 2 -1 3 17 1282. 2124. 351. o
1960 1 1 3 -17 1282. 2124. 351. o
1961 3 3 -3 -13 1295. 3243. 578. o
1961 2 -1 3 -17 1295. 3243. 578. o
1961 1 1 3 17 1295. 3243. 578. o
1962 2 -1 3 17 1282. 2103. 580. o
1962 1 1 3 -17 1282. 2103. 580. o
1963 2 -2 3 -17 25. 83. 259. <
1963 1 2 3 17 25. 83. 259. <
1964 2 -2 3 17 25. -41. 321. <
1964 1 2 3 -17 25. -41. 321. <
1965 2 -3 3 -17 582. 363. 363. <
1965 1 3 3 17 582. 363. 363. <
1966 2 -3 3 17 582. 933. 539. <
1966 1 3 3 -17 582. 933. 539. <
1967 2 1 4 -17 881. 622. 270. o
1967 1 -1 4 17 881. 622. 270. o
1968 2 -1 4 17 876. 891. 383. o
1968 1 1 4 -17 876. 891. 383. o
1969 3 3 -4 -13 899. 456. 715. <
1969 2 -1 4 -17 899. 456. 715. <
1969 1 1 4 17 899. 456. 715. <
1970 2 -1 4 17 876. 1772. 735. o
1970 1 1 4 -17 876. 1772. 735. o
1971 2 -2 4 -17 8242. 4890. 269. o
1971 1 2 4 17 8242. 4890. 269. o
1972 2 -2 4 17 8241. 4818. 357. o
1972 1 2 4 -17 8241. 4818. 357. o
1973 2 -3 4 -17 141. 414. 228. <
1973 1 3 4 17 141. 414. 228. <
1974 2 -3 4 17 141. 414. 363. <
1974 1 3 4 -17 141. 414. 363. <
1975 2 -4 4 -17 10858. 8165. 360. o
1975 1 4 4 17 10858. 8165. 360. o
1976 2 -4 4 17 10862. 9056. 578. o
1976 1 4 4 -17 10862. 9056. 578. o
1977 2 1 5 -17 6517. 9822. 251. o
1977 1 -1 5 17 6517. 9822. 251. o
1978 2 -1 5 17 6514. 8952. 348. o
1978 1 1 5 -17 6514. 8952. 348. o
1979 3 3 -5 -13 6522. 9346. 622. o
1979 2 -1 5 -17 6522. 9346. 622. o
1979 1 1 5 17 6522. 9346. 622. o
1980 2 -1 5 17 6514. 9066. 602. o
1980 1 1 5 -17 6514. 9066. 602. o
1981 2 -2 5 -17 794. 539. 249. o
1981 1 2 5 17 794. 539. 249. o
1982 2 -2 5 17 793. 414. 321. <
1982 1 2 5 -17 793. 414. 321. <
1983 2 -3 5 -17 5138. 5129. 249. o
1983 1 3 5 17 5138. 5129. 249. o
1984 2 -3 5 17 5139. 5699. 381. o
1984 1 3 5 -17 5139. 5699. 381. o
1985 2 -4 5 -17 726. 145. 239. <
1985 1 4 5 17 726. 145. 239. <
1986 2 -4 5 17 727. -21. 373. <
1986 1 4 5 -17 727. -21. 373. <
1987 2 -5 5 -17 855. 363. 311. <
1987 1 5 5 17 855. 363. 311. <
1988 2 -5 5 17 855. 414. 560. <
1988 1 5 5 -17 855. 414. 560. <
1989 2 1 6 -17 504. 176. 269. <
1989 1 -1 6 17 504. 176. 269. <
1990 2 -1 6 17 502. 580. 373. <
1990 1 1 6 -17 502. 580. 373. <
1991 3 3 -6 -13 512. 269. 684. <
1991 2 -1 6 -17 512. 269. 684. <
1991 1 1 6 17 512. 269. 684. <
1992 2 -1 6 17 502. 290. 746. <
1992 1 1 6 -17 502. 290. 746. <
1993 2 -2 6 -17 1513. 1109. 280. o
1993 1 2 6 17 1513. 1109. 280. o
1994 2 -2 6 17 1512. 922. 291. o
1994 1 2 6 -17 1512. 922. 291. o
1995 2 -3 6 -17 236. 52. 259. <
1995 1 3 6 17 236. 52. 259. <
1996 2 -3 6 17 235. 414. 332. <
1996 1 3 6 -17 235. 414. 332. <
1997 2 -4 6 -17 2599. 1989. 291. o
1997 1 4 6 17 2599. 1989. 291. o
1998 2 -4 6 17 2601. 2259. 332. o
1998 1 4 6 -17 2601. 2259. 332. o
1999 2 -5 6 -17 138. 933. 269. o
1999 1 5 6 17 138. 933. 269. o
2000 2 -5 6 17 138. 549. 394. <
2000 1 5 6 -17 138. 549. 394. <
2001 2 -6 6 -17 678. 1150. 373. o
2001 1 6 6 17 678. 1150. 373. o
2002 2 -6 6 17 679. 549. 725. <
2002 1 6 6 -17 679. 549. 725. <
2003 2 1 7 -17 9687. 16485. 242. o
2003 1 -1 7 17 9687. 16485. 242. o
2004 2 -1 7 17 9682. 16319. 337. o
2004 1 1 7 -17 9682. 16319. 337. o
2005 3 3 -7 -13 9689. 17656. 779. o
2005 2 -1 7 -17 9689. 17656. 779. o
2005 1 1 7 17 9689. 17656. 779. o
2006 2 -1 7 17 9682. 15293. 783. o
2006 1 1 7 -17 9682. 15293. 783. o
2007 2 -2 7 -17 988. 280. 239. <
2007 1 2 7 17 988. 280. 239. <
2008 2 -2 7 17 988. 21. 290. <
2008 1 2 7 -17 988. 21. 290. <
2009 2 -3 7 -17 3061. 3212. 279. o
2009 1 3 7 17 3061. 3212. 279. o
2010 2 -3 7 17 3061. 3678. 299. o
2010 1 3 7 -17 3061. 3678. 299. o
2011 2 -4 7 -17 1488. 404. 270. <
2011 1 4 7 17 1488. 404. 270. <
2012 2 -4 7 17 1490. 218. 374. <
2012 1 4 7 -17 1490. 218. 374. <
2013 2 -5 7 -17 692. 798. 280. o
2013 1 5 7 17 692. 798. 280. o
2014 2 -5 7 17 692. 1150. 404. o
2014 1 5 7 -17 692. 1150. 404. o
2015 2 -6 7 -17 223. 632. 269. o
2015 1 6 7 17 223. 632. 269. o
2016 2 -6 7 17 223. 1285. 414. o
2016 1 6 7 -17 223. 1285. 414. o
2017 2 -7 7 -17 72. 798. 373. o
2017 1 7 7 17 72. 798. 373. o
2018 2 7 7 17 72. 446. 964. <
2018 1 -7 7 -17 72. 446. 964. <
2019 3 4 -7 28 74. 1668. 818. o
2019 2 -7 7 17 74. 1668. 818. o
2019 1 7 7 -17 74. 1668. 818. o
2020 2 7 7 17 72. 1181. 2165. <
2020 1 -7 7 -17 72. 1181. 2165. <
2021 2 1 8 -17 45. 31. 280. <
2021 1 -1 8 17 45. 31. 280. <
2022 2 -1 8 17 45. 446. 404. <
2022 1 1 8 -17 45. 446. 404. <
2023 3 3 -8 -13 46. 259. 653. <
2023 2 -1 8 -17 46. 259. 653. <
2023 1 1 8 17 46. 259. 653. <
2024 2 -1 8 17 45. 1171. 694. <
2024 1 1 8 -17 45. 1171. 694. <
2025 2 -2 8 -17 35. 10. 300. <
2025 1 2 8 17 35. 10. 300. <
2026 2 -2 8 17 35. 477. 383. <
2026 1 2 8 -17 35. 477. 383. <
2027 2 -3 8 -17 259. 197. 311. <
2027 1 3 8 17 259. 197. 311. <
2028 2 -3 8 17 259. 155. 342. <
2028 1 3 8 -17 259. 155. 342. <
2029 2 -4 8 -17 32. 953. 310. o
2029 1 4 8 17 32. 953. 310. o
2030 2 -4 8 17 32. 912. 321. o
2030 1 4 8 -17 32. 912. 321. o
2031 2 -5 8 -17 186. 881. 290. o
2031 1 5 8 17 186. 881. 290. o
2032 2 -5 8 17 186. 1471. 382. o
2032 1 5 8 -17 186. 1471. 382. o
2033 2 1 9 -17 3797. 6538. 319. o
2033 1 -1 9 17 3797. 6538. 319. o
2034 2 -1 9 17 3800. 6952. 445. o
2034 1 1 9 -17 3800. 6952. 445. o
2035 3 3 -9 -13 3798. 7222. 728. o
2035 2 -1 9 -17 3798. 7222. 728. o
2035 1 1 9 17 3798. 7222. 728. o
2036 2 -1 9 17 3800. 6714. 855. o
2036 1 1 9 -17 3800. 6714. 855. o
2037 2 -2 9 -17 307. 974. 300. o
2037 1 2 9 17 307. 974. 300. o
2038 2 -2 9 17 307. 622. 404. <
2038 1 2 9 -17 307. 622. 404. <
2039 2 -3 9 -17 2199. 3046. 298. o
2039 1 3 9 17 2199. 3046. 298. o
2040 2 -3 9 17 2200. 3191. 392. o
2040 1 3 9 -17 2200. 3191. 392. o
2041 2 -4 9 -17 386. 642. 300. o
2041 1 4 9 17 386. 642. 300. o
2042 2 -4 9 17 385. 798. 383. o
2042 1 4 9 -17 385. 798. 383. o
2043 2 0 0 -18 49720. 48832. 1201. o
2043 1 0 0 18 49720. 48832. 1201. o
2044 2 0 0 18 49676. 48522. 1286. o
2044 1 0 0 -18 49676. 48522. 1286. o
2045 2 0 1 -18 2557. 984. 447. o
2045 1 0 1 18 2557. 984. 447. o
2046 2 0 1 18 2559. 1140. 416. o
2046 1 0 1 -18 2559. 1140. 416. o
2047 2 -1 1 -18 4716. 4818. 435. o
2047 1 1 1 18 4716. 4818. 435. o
2048 2 -1 1 18 4715. 4393. 457. o
2048 1 1 1 -18 4715. 4393. 457. o
2049 2 2 2 -18 19890. 18298. 533. o
2049 1 -2 2 18 19890. 18298. 533. o
2050 2 -2 2 18 19880. 17490. 701. o
2050 1 2 2 -18 19880. 17490. 701. o
2051 2 0 2 -18 7774. 7108. 407. o
2051 1 0 2 18 7774. 7108. 407. o
2052 2 0 2 18 7766. 6880. 419. o
2052 1 0 2 -18 7766. 6880. 419. o
2053 2 -1 2 -18 7254. 5958. 298. o
2053 1 1 2 18 7254. 5958. 298. o
2054 2 -1 2 18 7255. 5533. 330. o
2054 1 1 2 -18 7255. 5533. 330. o
2055 3 4 -2 -12 19934. 18630. 898. o
2055 2 -2 2 -18 19934. 18630. 898. o
2055 1 2 2 18 19934. 18630. 898. o
2056 2 -2 2 18 19880. 17169. 936. o
2056 1 2 2 -18 19880. 17169. 936. o
2057 2 2 3 -18 3193. 2766. 281. o
2057 1 -2 3 18 3193. 2766. 281. o
2058 2 -2 3 18 3195. 2818. 405. o
2058 1 2 3 -18 3195. 2818. 405. o
2059 2 0 3 -18 22750. 21893. 467. o
2059 1 0 3 18 22750. 21893. 467. o
2060 2 0 3 18 22766. 20930. 568. o
2060 1 0 3 -18 22766. 20930. 568. o
2061 2 -1 3 -18 6604. 5274. 277. o
2061 1 1 3 18 6604. 5274. 277. o
2062 2 -1 3 18 6605. 4714. 299. o
2062 1 1 3 -18 6605. 4714. 299. o
2063 3 4 -3 -12 3219. 3036. 798. o
2063 2 -2 3 -18 3219. 3036. 798. o
2063 1 2 3 18 3219. 3036. 798. o
2064 2 -2 3 18 3195. 2217. 819. o
2064 1 2 3 -18 3195. 2217. 819. o
2065 2 -3 3 -18 2574. 922. 354. o
2065 1 3 3 18 2574. 922. 354. o
2066 2 -3 3 18 2574. 560. 550. <
2066 1 3 3 -18 2574. 560. 550. <
2067 2 2 4 -18 532. 135. 280. <
2067 1 -2 4 18 532. 135. 280. <
2068 2 -2 4 18 535. 321. 321. <
2068 1 2 4 -18 535. 321. 321. <
2069 2 0 4 -18 6887. 5823. 378. o
2069 1 0 4 18 6887. 5823. 378. o
2070 2 0 4 18 6875. 5730. 419. o
2070 1 0 4 -18 6875. 5730. 419. o
2071 2 -1 4 -18 933. 1233. 238. o
2071 1 1 4 18 933. 1233. 238. o
2072 2 -1 4 18 933. 922. 311. o
2072 1 1 4 -18 933. 922. 311. o
2073 3 4 -4 -12 760. 487. 756. <
2073 2 -2 4 -18 760. 487. 756. <
2073 1 2 4 18 760. 487. 756. <
2074 2 -2 4 18 535. 819. 549. <
2074 1 2 4 -18 535. 819. 549. <
2075 2 -3 4 -18 579. 477. 238. <
2075 1 3 4 18 579. 477. 238. <
2076 2 -3 4 18 579. 332. 415. <
2076 1 3 4 -18 579. 332. 415. <
2077 2 -4 4 -18 3023. 1616. 375. o
2077 1 4 4 18 3023. 1616. 375. o
2078 2 -4 4 18 3020. 2342. 488. o
2078 1 4 4 -18 3020. 2342. 488. o
2079 2 2 5 -18 3884. 4424. 267. o
2079 1 -2 5 18 3884. 4424. 267. o
2080 2 -2 5 18 3889. 4673. 371. o
2080 1 2 5 -18 3889. 4673. 371. o
2081 2 0 5 -18 1325. 1958. 393. o
2081 1 0 5 18 1325. 1958. 393. o
2082 2 0 5 18 1323. 2621. 444. o
2082 1 0 5 -18 1323. 2621. 444. o
2083 2 -1 5 -18 1715. 1741. 259. o
2083 1 1 5 18 1715. 1741. 259. o
2084 2 -1 5 18 1714. 1430. 363. o
2084 1 1 5 -18 1714. 1430. 363. o
2085 3 4 -5 -12 3892. 4714. 610. o
2085 2 -2 5 -18 3892. 4714. 610. o
2085 1 2 5 18 3892. 4714. 610. o
2086 2 -2 5 18 3889. 3419. 633. o
2086 1 2 5 -18 3889. 3419. 633. o
2087 2 -3 5 -18 5181. 4331. 273. o
2087 1 3 5 18 5181. 4331. 273. o
2088 2 -3 5 18 5179. 4155. 387. o
2088 1 3 5 -18 5179. 4155. 387. o
2089 2 -4 5 -18 1112. 995. 228. o
2089 1 4 5 18 1112. 995. 228. o
2090 2 -4 5 18 1112. 1202. 445. o
2090 1 4 5 -18 1112. 1202. 445. o
2091 2 -5 5 -18 1670. 632. 374. <
2091 1 5 5 18 1670. 632. 374. <
2092 2 -5 5 18 1673. 1295. 477. o
2092 1 5 5 -18 1673. 1295. 477. o
2093 2 2 6 -18 809. 508. 259. <
2093 1 -2 6 18 809. 508. 259. <
2094 2 -2 6 18 805. 518. 373. <
2094 1 2 6 -18 805. 518. 373. <
2095 2 0 6 -18 2508. 798. 333. o
2095 1 0 6 18 2508. 798. 333. o
2096 2 0 6 18 2515. 787. 550. <
2096 1 0 6 -18 2515. 787. 550. <
2097 2 -1 6 -18 102. 207. 269. <
2097 1 1 6 18 102. 207. 269. <
2098 2 -1 6 18 102. 808. 310. o
2098 1 1 6 -18 102. 808. 310. o
2099 3 4 -6 -12 814. 1036. 580. <
2099 2 -2 6 -18 814. 1036. 580. <
2099 1 2 6 18 814. 1036. 580. <
2100 2 -2 6 18 805. 1046. 839. <
2100 1 2 6 -18 805. 1046. 839. <
2101 2 -3 6 -18 5027. 6994. 246. o
2101 1 3 6 18 5027. 6994. 246. o
2102 2 -3 6 18 5025. 6911. 333. o
2102 1 3 6 -18 5025. 6911. 333. o
2103 2 -4 6 -18 364. 653. 228. o
2103 1 4 6 18 364. 653. 228. o
2104 2 -4 6 18 364. 518. 332. <
2104 1 4 6 -18 364. 518. 332. <
2105 2 -5 6 -18 1108. 1015. 259. o
2105 1 5 6 18 1108. 1015. 259. o
2106 2 -5 6 18 1109. 1378. 425. o
2106 1 5 6 -18 1109. 1378. 425. o
2107 2 -6 6 -18 2527. 2166. 446. o
2107 1 6 6 18 2527. 2166. 446. o
2108 3 3 -6 27 2526. 953. 871. <
2108 2 -6 6 18 2526. 953. 871. <
2108 1 6 6 -18 2526. 953. 871. <
2109 2 6 6 18 2523. 176. 799. <
2109 1 -6 6 -18 2523. 176. 799. <
2110 2 2 7 -18 363. 456. 321. <
2110 1 -2 7 18 363. 456. 321. <
2111 2 -2 7 18 363. 663. 321. o
2111 1 2 7 -18 363. 663. 321. o
2112 2 0 7 -18 498. 259. 342. <
2112 1 0 7 18 498. 259. 342. <
2113 2 0 7 18 501. 477. 528. <
2113 1 0 7 -18 501. 477. 528. <
2114 2 -1 7 -18 1292. 1585. 279. o
2114 1 1 7 18 1292. 1585. 279. o
2115 2 -1 7 18 1294. 1751. 321. o
2115 1 1 7 -18 1294. 1751. 321. o
2116 3 4 -7 -12 371. 684. 559. <
2116 2 -2 7 -18 371. 684. 559. <
2116 1 2 7 18 371. 684. 559. <
2117 2 -2 7 18 363. -870. 507. <
2117 1 2 7 -18 363. -870. 507. <
2118 2 -3 7 -18 634. 881. 280. o
2118 1 3 7 18 634. 881. 280. o
2119 2 -3 7 18 633. 601. 311. <
2119 1 3 7 -18 633. 601. 311. <
2120 2 -4 7 -18 217. 238. 311. <
2120 1 4 7 18 217. 238. 311. <
2121 2 -4 7 18 218. 1078. 341. o
2121 1 4 7 -18 218. 1078. 341. o
2122 2 -5 7 -18 851. 1875. 289. o
2122 1 5 7 18 851. 1875. 289. o
2123 2 -5 7 18 849. 756. 394. <
2123 1 5 7 -18 849. 756. 394. <
2124 2 -6 7 -18 805. 1741. 299. o
2124 1 6 7 18 805. 1741. 299. o
2125 3 3 -7 27 815. 2052. 662. o
2125 2 -6 7 18 815. 2052. 662. o
2125 1 6 7 -18 815. 2052. 662. o
2126 2 6 7 18 805. 1357. 518. o
2126 1 -6 7 -18 805. 1357. 518. o
2127 2 2 8 -18 1413. 1761. 310. o
2127 1 -2 8 18 1413. 1761. 310. o
2128 2 -2 8 18 1416. 1212. 384. o
2128 1 2 8 -18 1416. 1212. 384. o
2129 2 0 8 -18 307. 155. 352. <
2129 1 0 8 18 307. 155. 352. <
2130 2 0 8 18 307. 705. 549. <
2130 1 0 8 -18 307. 705. 549. <
2131 2 -1 8 -18 987. 2093. 278. o
2131 1 1 8 18 987. 2093. 278. o
2132 2 -1 8 18 986. 1969. 361. o
2132 1 1 8 -18 986. 1969. 361. o
2133 3 4 -8 -12 1449. 1378. 591. o
2133 2 -2 8 -18 1449. 1378. 591. o
2133 1 2 8 18 1449. 1378. 591. o
2134 2 -2 8 18 1416. 197. 591. <
2134 1 2 8 -18 1416. 197. 591. <
2135 2 -3 8 -18 958. 1906. 320. o
2135 1 3 8 18 958. 1906. 320. o
2136 2 -3 8 18 958. 2456. 350. o
2136 1 3 8 -18 958. 2456. 350. o
2137 2 -4 8 -18 516. 860. 269. o
2137 1 4 8 18 516. 860. 269. o
2138 2 -4 8 18 514. 632. 352. <
2138 1 4 8 -18 514. 632. 352. <
2139 2 -5 8 -18 2096. 3357. 297. o
2139 1 5 8 18 2096. 3357. 297. o
2140 2 -5 8 18 2096. 3067. 413. o
2140 1 5 8 -18 2096. 3067. 413. o
2141 2 2 9 -18 177. 1057. 321. o
2141 1 -2 9 18 177. 1057. 321. o
2142 2 -2 9 18 177. 1243. 476. o
2142 1 2 9 -18 177. 1243. 476. o
2143 2 0 9 -18 1878. 2994. 413. o
2143 1 0 9 18 1878. 2994. 413. o
2144 2 0 9 18 1877. 3326. 495. o
2144 1 0 9 -18 1877. 3326. 495. o
2145 2 -1 9 -18 573. 1627. 299. o
2145 1 1 9 18 573. 1627. 299. o
2146 2 -1 9 18 572. 1202. 414. o
2146 1 1 9 -18 572. 1202. 414. o
2147 3 4 -9 -12 178. 943. 932. <
2147 2 -2 9 -18 178. 943. 932. <
2147 1 2 9 18 178. 943. 932. <
2148 2 -2 9 18 177. 1430. 932. <
2148 1 2 9 -18 177. 1430. 932. <
2149 2 -3 9 -18 627. 756. 269. o
2149 1 3 9 18 627. 756. 269. o
2150 2 -3 9 18 628. 1026. 383. o
2150 1 3 9 -18 628. 1026. 383. o
2151 2 -1 1 -19 951. 352. 394. <
2151 1 1 1 19 951. 352. 394. <
2152 2 -1 1 19 957. 446. 415. <
2152 1 1 1 -19 957. 446. 415. <
2153 2 -1 2 -19 4921. 3989. 294. o
2153 1 1 2 19 4921. 3989. 294. o
2154 2 -1 2 19 4917. 3761. 305. o
2154 1 1 2 -19 4917. 3761. 305. o
2155 2 -2 2 -19 2180. 984. 374. o
2155 1 2 2 19 2180. 984. 374. o
2156 2 -2 2 19 2180. 756. 498. <
2156 1 2 2 -19 2180. 756. 498. <
2157 2 3 3 -19 12656. 10340. 421. o
2157 1 -3 3 19 12656. 10340. 421. o
2158 2 -3 3 19 12665. 10486. 806. o
2158 1 3 3 -19 12665. 10486. 806. o
2159 2 -1 3 -19 11407. 10423. 280. o
2159 1 1 3 19 11407. 10423. 280. o
2160 2 -1 3 19 11417. 10154. 332. o
2160 1 1 3 -19 11417. 10154. 332. o
2161 2 -2 3 -19 323. 269. 238. <
2161 1 2 3 19 323. 269. 238. <
2162 2 -2 3 19 322. 477. 342. <
2162 1 2 3 -19 322. 477. 342. <
2163 3 5 -3 -11 12829. 12755. 871. o
2163 2 -3 3 -19 12829. 12755. 871. o
2163 1 3 3 19 12829. 12755. 871. o
2164 2 -3 3 19 12665. 10278. 858. o
2164 1 3 3 -19 12665. 10278. 858. o
2165 2 3 4 -19 398. 394. 259. <
2165 1 -3 4 19 398. 394. 259. <
2166 2 -3 4 19 399. 124. 414. <
2166 1 3 4 -19 399. 124. 414. <
2167 2 -1 4 -19 3499. 3678. 248. o
2167 1 1 4 19 3499. 3678. 248. o
2168 2 -1 4 19 3504. 3554. 290. o
2168 1 1 4 -19 3504. 3554. 290. o
2169 2 -2 4 -19 4802. 2476. 257. o
2169 1 2 4 19 4802. 2476. 257. o
2170 2 -2 4 19 4802. 2083. 348. o
2170 1 2 4 -19 4802. 2083. 348. o
2171 3 5 -4 -11 406. 1337. 746. <
2171 2 -3 4 -19 406. 1337. 746. <
2171 1 3 4 19 406. 1337. 746. <
2172 2 -3 4 19 399. 456. 746. <
2172 1 3 4 -19 399. 456. 746. <
2173 2 -4 4 -19 4379. 2777. 336. o
2173 1 4 4 19 4379. 2777. 336. o
2174 2 -4 4 19 4376. 2777. 562. o
2174 1 4 4 -19 4376. 2777. 562. o
2175 2 3 5 -19 10632. 10817. 278. o
2175 1 -3 5 19 10632. 10817. 278. o
2176 2 -3 5 19 10639. 10838. 444. o
2176 1 3 5 -19 10639. 10838. 444. o
2177 2 -1 5 -19 15590. 19438. 244. o
2177 1 1 5 19 15590. 19438. 244. o
2178 2 -1 5 19 15597. 18370. 371. o
2178 1 1 5 -19 15597. 18370. 371. o
2179 2 -2 5 -19 936. 839. 249. o
2179 1 2 5 19 936. 839. 249. o
2180 2 -2 5 19 936. 808. 321. o
2180 1 2 5 -19 936. 808. 321. o
2181 3 5 -5 -11 10701. 10278. 799. o
2181 2 -3 5 -19 10701. 10278. 799. o
2181 1 3 5 19 10701. 10278. 799. o
2182 2 -3 5 19 10639. 11055. 682. o
2182 1 3 5 -19 10639. 11055. 682. o
2183 2 -4 5 -19 1967. 1502. 239. o
2183 1 4 5 19 1967. 1502. 239. o
2184 2 -4 5 19 1965. 1316. 343. o
2184 1 4 5 -19 1965. 1316. 343. o
2185 2 -5 5 -19 2594. 1958. 384. o
2185 1 5 5 19 2594. 1958. 384. o
2186 2 5 5 19 2598. -83. 892. <
2186 1 -5 5 -19 2598. -83. 892. <
2187 3 2 -5 26 2631. 2207. 777. o
2187 2 -5 5 19 2631. 2207. 777. o
2187 1 5 5 -19 2631. 2207. 777. o
2188 2 3 6 -19 139. 124. 280. <
2188 1 -3 6 19 139. 124. 280. <
2189 2 -3 6 19 139. 145. 383. <
2189 1 3 6 -19 139. 145. 383. <
2190 2 -1 6 -19 210. 342. 238. <
2190 1 1 6 19 210. 342. 238. <
2191 2 -1 6 19 211. 352. 352. <
2191 1 1 6 -19 211. 352. 352. <
2192 2 -2 6 -19 396. 632. 280. o
2192 1 2 6 19 396. 632. 280. o
2193 2 -2 6 19 396. 777. 321. o
2193 1 2 6 -19 396. 777. 321. o
2194 3 5 -6 -11 141. 2373. 765. o
2194 2 -3 6 -19 141. 2373. 765. o
2194 1 3 6 19 141. 2373. 765. o
2195 2 -3 6 19 139. -269. 559. <
2195 1 3 6 -19 139. -269. 559. <
2196 2 -4 6 -19 2542. 1792. 271. o
2196 1 4 6 19 2542. 1792. 271. o
2197 2 -4 6 19 2540. 1212. 364. o
2197 1 4 6 -19 2540. 1212. 364. o
2198 2 -5 6 -19 457. 1057. 279. o
2198 1 5 6 19 457. 1057. 279. o
2199 2 5 6 19 457. 1212. 590. o
2199 1 -5 6 -19 457. 1212. 590. o
2200 3 2 -6 26 476. 1637. 580. o
2200 2 -5 6 19 476. 1637. 580. o
2200 1 5 6 -19 476. 1637. 580. o
2201 2 5 6 19 457. -41. 435. <
2201 1 -5 6 -19 457. -41. 435. <
2202 2 -6 6 -19 115. 1150. 393. o
2202 1 6 6 19 115. 1150. 393. o
2203 2 -6 6 19 115. 591. 539. <
2203 1 6 6 -19 115. 591. 539. <
2204 2 3 7 -19 3500. 4745. 306. o
2204 1 -3 7 19 3500. 4745. 306. o
2205 2 -3 7 19 3502. 4735. 401. o
2205 1 3 7 -19 3502. 4735. 401. o
2206 2 -1 7 -19 9746. 15086. 306. o
2206 1 1 7 19 9746. 15086. 306. o
2207 2 -1 7 19 9751. 15521. 396. o
2207 1 1 7 -19 9751. 15521. 396. o
2208 2 -2 7 -19 1614. 1502. 259. o
2208 1 2 7 19 1614. 1502. 259. o
2209 2 -2 7 19 1614. 1513. 321. o
2209 1 2 7 -19 1614. 1513. 321. o
2210 3 5 -7 -11 3585. 4072. 579. o
2210 2 -3 7 -19 3585. 4072. 579. o
2210 1 3 7 19 3585. 4072. 579. o
2211 2 -3 7 19 3502. 3409. 601. o
2211 1 3 7 -19 3502. 3409. 601. o
2212 2 -4 7 -19 2077. 2041. 269. o
2212 1 4 7 19 2077. 2041. 269. o
2213 2 -4 7 19 2075. 1958. 363. o
2213 1 4 7 -19 2075. 1958. 363. o
2214 2 -5 7 -19 1315. 1388. 280. o
2214 1 5 7 19 1315. 1388. 280. o
2215 2 5 7 19 1317. 1647. 1430. <
2215 1 -5 7 -19 1317. 1647. 1430. <
2216 3 2 -7 26 1322. 3606. 879. o
2216 2 -5 7 19 1322. 3606. 879. o
2216 1 5 7 -19 1322. 3606. 879. o
2217 2 5 7 19 1317. 808. 467. <
2217 1 -5 7 -19 1317. 808. 467. <
2218 2 -6 7 -19 1136. 1015. 280. o
2218 1 6 7 19 1136. 1015. 280. o
2219 2 -6 7 19 1134. 1772. 393. o
2219 1 6 7 -19 1134. 1772. 393. o
2220 2 3 8 -19 91. 922. 342. o
2220 1 -3 8 19 91. 922. 342. o
2221 2 -3 8 19 91. 456. 373. <
2221 1 3 8 -19 91. 456. 373. <
2222 2 -1 8 -19 568. 1181. 290. o
2222 1 1 8 19 568. 1181. 290. o
2223 2 -1 8 19 567. 995. 352. o
2223 1 1 8 -19 567. 995. 352. o
2224 2 -2 8 -19 25. 321. 280. <
2224 1 2 8 19 25. 321. 280. <
2225 2 -2 8 19 24. 135. 363. <
2225 1 2 8 -19 24. 135. 363. <
2226 3 5 -8 -11 92. 1523. 891. <
2226 2 -3 8 -19 92. 1523. 891. <
2226 1 3 8 19 92. 1523. 891. <
2227 2 -3 8 19 91. 1958. 880. o
2227 1 3 8 -19 91. 1958. 880. o
2228 2 -4 8 -19 142. 477. 300. <
2228 1 4 8 19 142. 477. 300. <
2229 2 -4 8 19 143. 933. 383. o
2229 1 4 8 -19 143. 933. 383. o
2230 2 -5 8 -19 246. 1254. 320. o
2230 1 5 8 19 246. 1254. 320. o
2231 2 5 8 19 246. 767. 539. <
2231 1 -5 8 -19 246. 767. 539. <
2232 3 2 -8 26 249. 1150. 912. <
2232 2 -5 8 19 249. 1150. 912. <
2232 1 5 8 -19 249. 1150. 912. <
2233 2 5 8 19 246. 819. 829. <
2233 1 -5 8 -19 246. 819. 829. <
2234 2 3 9 -19 1998. 2798. 288. o
2234 1 -3 9 19 1998. 2798. 288. o
2235 2 -3 9 19 2000. 2818. 434. o
2235 1 3 9 -19 2000. 2818. 434. o
2236 2 -1 9 -19 3219. 5616. 322. o
2236 1 1 9 19 3219. 5616. 322. o
2237 2 -1 9 19 3220. 4621. 390. o
2237 1 1 9 -19 3220. 4621. 390. o
2238 2 -2 9 -19 352. 1295. 300. o
2238 1 2 9 19 352. 1295. 300. o
2239 2 -2 9 19 352. 663. 383. <
2239 1 2 9 -19 352. 663. 383. <
2240 3 5 -9 -11 2005. 3305. 890. o
2240 2 -3 9 -19 2005. 3305. 890. o
2240 1 3 9 19 2005. 3305. 890. o
2241 2 -3 9 19 2000. 3481. 848. o
2241 1 3 9 -19 2000. 3481. 848. o
2242 2 0 0 -20 54519. 64198. 1179. o
2242 1 0 0 20 54519. 64198. 1179. o
2243 2 0 0 20 54528. 63214. 1194. o
2243 1 0 0 -20 54528. 63214. 1194. o
2244 2 0 1 -20 39780. 47941. 405. o
2244 1 0 1 20 39780. 47941. 405. o
2245 2 0 1 20 39778. 45092. 436. o
2245 1 0 1 -20 39778. 45092. 436. o
2246 2 -1 1 -20 46991. 47081. 589. o
2246 1 1 1 20 46991. 47081. 589. o
2247 2 -1 1 20 46996. 45082. 600. o
2247 1 1 1 -20 46996. 45082. 600. o
2248 2 0 2 -20 2600. 1150. 385. o
2248 1 0 2 20 2600. 1150. 385. o
2249 2 0 2 20 2635. 1036. 385. o
2249 1 0 2 -20 2635. 1036. 385. o
2250 2 -1 2 -20 13506. 14827. 316. o
2250 1 1 2 20 13506. 14827. 316. o
2251 2 -1 2 20 13510. 14040. 315. o
2251 1 1 2 -20 13510. 14040. 315. o
2252 2 -2 2 -20 74594. 69783. 781. o
2252 1 2 2 20 74594. 69783. 781. o
2253 2 -2 2 20 74583. 66726. 1033. o
2253 1 2 2 -20 74583. 66726. 1033. o
2254 2 0 3 -20 4059. 3906. 353. o
2254 1 0 3 20 4059. 3906. 353. o
2255 2 0 3 20 4056. 3720. 436. o
2255 1 0 3 -20 4056. 3720. 436. o
2256 2 -1 3 -20 14262. 17272. 278. o
2256 1 1 3 20 14262. 17272. 278. o
2257 2 -1 3 20 14259. 15894. 355. o
2257 1 1 3 -20 14259. 15894. 355. o
2258 2 -2 3 -20 35541. 33643. 399. o
2258 1 2 3 20 35541. 33643. 399. o
2259 2 -2 3 20 35544. 33684. 540. o
2259 1 2 3 -20 35544. 33684. 540. o
2260 2 -3 3 -20 57517. 45724. 769. o
2260 1 3 3 20 57517. 45724. 769. o
2261 2 -3 3 20 57516. 43921. 866. o
2261 1 3 3 -20 57516. 43921. 866. o
2262 3 -1 -4 -25 50742. 47755. 644. o
2262 2 4 4 -20 50742. 47755. 644. o
2262 1 -4 4 20 50742. 47755. 644. o
2263 3 1 -4 25 50721. 51485. 1026. o
2263 2 -4 4 20 50721. 51485. 1026. o
2263 1 4 4 -20 50721. 51485. 1026. o
2264 2 0 4 -20 87618. 95168. 428. o
2264 1 0 4 20 87618. 95168. 428. o
2265 2 0 4 20 87623. 87863. 728. o
2265 1 0 4 -20 87623. 87863. 728. o
2266 2 -1 4 -20 16590. 16050. 328. o
2266 1 1 4 20 16590. 16050. 328. o
2267 2 -1 4 20 16588. 15138. 399. o
2267 1 1 4 -20 16588. 15138. 399. o
2268 2 -2 4 -20 9786. 10786. 237. o
2268 1 2 4 20 9786. 10786. 237. o
2269 2 -2 4 20 9798. 11004. 385. o
2269 1 2 4 -20 9798. 11004. 385. o
2270 2 -3 4 -20 8250. 7180. 267. o
2270 1 3 4 20 8250. 7180. 267. o
2271 2 -3 4 20 8252. 7253. 378. o
2271 1 3 4 -20 8252. 7253. 378. o
2272 3 6 -4 -10 50761. 50034. 1015. o
2272 2 -4 4 -20 50761. 50034. 1015. o
2272 1 4 4 20 50761. 50034. 1015. o
2273 3 -6 -4 10 50741. 48045. 1100. o
2273 2 4 4 20 50741. 48045. 1100. o
2273 1 -4 4 -20 50741. 48045. 1100. o
2274 2 -5 4 -20 9721. 8817. 399. o
2274 1 5 4 20 9721. 8817. 399. o
2275 2 -5 4 20 9724. 8455. 637. o
2275 1 5 4 -20 9724. 8455. 637. o
2276 2 -6 4 -20 1841. 1834. 404. o
2276 1 6 4 20 1841. 1834. 404. o
2277 2 -6 4 20 1844. 2248. 507. o
2277 1 6 4 -20 1844. 2248. 507. o
2278 2 -7 4 -20 1479. 1440. 425. o
2278 1 7 4 20 1479. 1440. 425. o
2279 2 -7 4 20 1479. 1554. 508. o
2279 1 7 4 -20 1479. 1554. 508. o
2280 2 -8 4 -20 10791. 10724. 425. o
2280 1 8 4 20 10791. 10724. 425. o
2281 2 -8 4 20 10790. 9470. 566. o
2281 1 8 4 -20 10790. 9470. 566. o
2282 3 -1 -5 -25 9737. 7729. 486. o
2282 2 4 5 -20 9737. 7729. 486. o
2282 1 -4 5 20 9737. 7729. 486. o
2283 3 1 -5 25 9740. 8030. 813. o
2283 2 -4 5 20 9740. 8030. 813. o
2283 1 4 5 -20 9740. 8030. 813. o
2284 2 0 5 -20 24820. 23468. 524. o
2284 1 0 5 20 24820. 23468. 524. o
2285 2 0 5 20 24834. 23116. 589. o
2285 1 0 5 -20 24834. 23116. 589. o
2286 2 -1 5 -20 25656. 23437. 363. o
2286 1 1 5 20 25656. 23437. 363. o
2287 2 -1 5 20 25661. 22888. 493. o
2287 1 1 5 -20 25661. 22888. 493. o
2288 2 -2 5 -20 2862. 2570. 239. o
2288 1 2 5 20 2862. 2570. 239. o
2289 2 -2 5 20 2859. 2549. 322. o
2289 1 2 5 -20 2859. 2549. 322. o
2290 2 -3 5 -20 2806. 3336. 268. o
2290 1 3 5 20 2806. 3336. 268. o
2291 2 -3 5 20 2806. 3305. 393. o
2291 1 3 5 -20 2806. 3305. 393. o
2292 3 6 -5 -10 9794. 8600. 626. o
2292 2 -4 5 -20 9794. 8600. 626. o
2292 1 4 5 20 9794. 8600. 626. o
2293 3 -6 -5 10 9796. 9190. 800. o
2293 2 4 5 20 9796. 9190. 800. o
2293 1 -4 5 -20 9796. 9190. 800. o
2294 2 -5 5 -20 17798. 17780. 456. o
2294 1 5 5 20 17798. 17780. 456. o
2295 2 -5 5 20 17786. 17117. 596. o
2295 1 5 5 -20 17786. 17117. 596. o
2296 3 -1 -6 -25 1844. 1565. 425. o
2296 2 4 6 -20 1844. 1565. 425. o
2296 1 -4 6 20 1844. 1565. 425. o
2297 3 1 -6 25 1846. 1761. 756. o
2297 2 -4 6 20 1846. 1761. 756. o
2297 1 4 6 -20 1846. 1761. 756. o
2298 2 0 6 -20 13458. 25147. 339. o
2298 1 0 6 20 13458. 25147. 339. o
2299 2 0 6 20 13482. 24442. 624. o
2299 1 0 6 -20 13482. 24442. 624. o
2300 2 -1 6 -20 8953. 7377. 291. o
2300 1 1 6 20 8953. 7377. 291. o
2301 2 -1 6 20 8953. 7408. 361. o
2301 1 1 6 -20 8953. 7408. 361. o
2302 2 -2 6 -20 51775. 59712. 1157. o
2302 1 2 6 20 51775. 59712. 1157. o
2303 2 -2 6 20 51786. 59836. 44. o
2303 1 2 6 -20 51786. 59836. 44. o
2304 2 -3 6 -20 4758. 3046. 286. o
2304 1 3 6 20 4758. 3046. 286. o
2305 2 -3 6 20 4760. 3512. 366. o
2305 1 3 6 -20 4760. 3512. 366. o
2306 3 6 -6 -10 2210. 1751. 705. o
2306 2 -4 6 -20 2210. 1751. 705. o
2306 1 4 6 20 2210. 1751. 705. o
2307 3 -6 -6 10 2212. 1026. 736. <
2307 2 4 6 20 2212. 1026. 736. <
2307 1 -4 6 -20 2212. 1026. 736. <
2308 2 -5 6 -20 5062. 3264. 256. o
2308 1 5 6 20 5062. 3264. 256. o
2309 2 -5 6 20 5058. 4186. 396. o
2309 1 5 6 -20 5058. 4186. 396. o
2310 2 -6 6 -20 9733. 7398. 457. o
2310 1 6 6 20 9733. 7398. 457. o
2311 2 -6 6 20 9735. 7056. 641. o
2311 1 6 6 -20 9735. 7056. 641. o
2312 3 -1 -7 -25 1483. 2321. 528. o
2312 2 4 7 -20 1483. 2321. 528. o
2312 1 -4 7 20 1483. 2321. 528. o
2313 3 1 -7 25 1483. 539. 757. <
2313 2 -4 7 20 1483. 539. 757. <
2313 1 4 7 -20 1483. 539. 757. <
2314 2 0 7 -20 2103. 1668. 363. o
2314 1 0 7 20 2103. 1668. 363. o
2315 2 0 7 20 2100. 1533. 539. o
2315 1 0 7 -20 2100. 1533. 539. o
2316 2 -1 7 -20 6609. 7792. 282. o
2316 1 1 7 20 6609. 7792. 282. o
2317 2 -1 7 20 6604. 7502. 421. o
2317 1 1 7 -20 6604. 7502. 421. o
2318 2 -2 7 -20 8847. 6528. 305. o
2318 1 2 7 20 8847. 6528. 305. o
2319 2 -2 7 20 8849. 6196. 346. o
2319 1 2 7 -20 8849. 6196. 346. o
2320 2 -3 7 -20 8747. 8848. 289. o
2320 1 3 7 20 8747. 8848. 289. o
2321 2 -3 7 20 8750. 9429. 369. o
2321 1 3 7 -20 8750. 9429. 369. o
2322 3 6 -7 -10 1498. 1399. 591. o
2322 2 -4 7 -20 1498. 1399. 591. o
2322 1 4 7 20 1498. 1399. 591. o
2323 3 -6 -7 10 1498. 1637. 756. o
2323 2 4 7 20 1498. 1637. 756. o
2323 1 -4 7 -20 1498. 1637. 756. o
2324 2 -5 7 -20 3012. 2994. 311. o
2324 1 5 7 20 3012. 2994. 311. o
2325 2 -5 7 20 3014. 3119. 445. o
2325 1 5 7 -20 3014. 3119. 445. o
2326 2 -6 7 -20 2483. 2300. 280. o
2326 1 6 7 20 2483. 2300. 280. o
2327 2 -6 7 20 2485. 2352. 394. o
2327 1 6 7 -20 2485. 2352. 394. o
2328 3 -1 -8 -25 10792. 11563. 555. o
2328 2 4 8 -20 10792. 11563. 555. o
2328 1 -4 8 20 10792. 11563. 555. o
2329 3 1 -8 25 10792. 9791. 966. o
2329 2 -4 8 20 10792. 9791. 966. o
2329 1 4 8 -20 10792. 9791. 966. o
2330 2 0 8 -20 29463. 39445. 295. o
2330 1 0 8 20 29463. 39445. 295. o
2331 2 0 8 20 29472. 37611. 696. o
2331 1 0 8 -20 29472. 37611. 696. o
2332 2 -1 8 -20 2616. 1761. 312. o
2332 1 1 8 20 2616. 1761. 312. o
2333 2 -1 8 20 2616. 1917. 395. o
2333 1 1 8 -20 2616. 1917. 395. o
2334 2 -2 8 -20 3321. 6538. 284. o
2334 1 2 8 20 3321. 6538. 284. o
2335 2 -2 8 20 3326. 6227. 373. o
2335 1 2 8 -20 3326. 6227. 373. o
2336 2 -3 8 -20 4715. 3968. 303. o
2336 1 3 8 20 4715. 3968. 303. o
2337 2 -3 8 20 4714. 3896. 406. o
2337 1 3 8 -20 4714. 3896. 406. o
2338 3 6 -8 -10 10803. 11511. 733. o
2338 2 -4 8 -20 10803. 11511. 733. o
2338 1 4 8 20 10803. 11511. 733. o
2339 3 -6 -8 10 10802. 9968. 873. o
2339 2 4 8 20 10802. 9968. 873. o
2339 1 -4 8 -20 10802. 9968. 873. o
2340 2 -5 8 -20 1359. 901. 291. o
2340 1 5 8 20 1359. 901. 291. o
2341 2 -5 8 20 1360. 591. 415. <
2341 1 5 8 -20 1360. 591. 415. <
2342 2 0 9 -20 2656. 2362. 415. o
2342 1 0 9 20 2656. 2362. 415. o
2343 2 0 9 20 2659. 1741. 498. o
2343 1 0 9 -20 2659. 1741. 498. o
2344 2 -1 9 -20 2635. 2922. 331. o
2344 1 1 9 20 2635. 2922. 331. o
2345 2 -1 9 20 2637. 3450. 454. o
2345 1 1 9 -20 2637. 3450. 454. o
2346 2 -2 9 -20 1140. 1502. 290. o
2346 1 2 9 20 1140. 1502. 290. o
2347 2 -2 9 20 1140. 1409. 404. o
2347 1 2 9 -20 1140. 1409. 404. o
2348 2 -3 9 -20 4062. 5118. 327. o
2348 1 3 9 20 4062. 5118. 327. o
2349 2 -3 9 20 4060. 4859. 475. o
2349 1 3 9 -20 4060. 4859. 475. o
2350 2 -1 1 -21 77944. 87625. 179. o
2350 1 1 1 21 77944. 87625. 179. o
2351 2 -1 1 21 77929. 88340. 159. o
2351 1 1 1 -21 77929. 88340. 159. o
2352 2 -1 2 -21 19862. 17770. 352. o
2352 1 1 2 21 19862. 17770. 352. o
2353 2 -1 2 21 19856. 17469. 374. o
2353 1 1 2 -21 19856. 17469. 374. o
2354 2 -2 2 -21 393. -114. 383. <
2354 1 2 2 21 393. -114. 383. <
2355 2 -2 2 21 395. 300. 497. <
2355 1 2 2 -21 395. 300. 497. <
2356 2 -1 3 -21 50090. 50366. 395. o
2356 1 1 3 21 50090. 50366. 395. o
2357 2 -1 3 21 50068. 48978. 477. o
2357 1 1 3 -21 50068. 48978. 477. o
2358 2 -2 3 -21 4236. 4528. 268. o
2358 1 2 3 21 4236. 4528. 268. o
2359 2 -2 3 21 4232. 4093. 373. o
2359 1 2 3 -21 4232. 4093. 373. o
2360 2 -3 3 -21 31893. 32493. 466. o
2360 1 3 3 21 31893. 32493. 466. o
2361 3 0 -3 24 31921. 31695. 811. o
2361 2 -3 3 21 31921. 31695. 811. o
2361 1 3 3 -21 31921. 31695. 811. o
2362 2 3 3 21 31882. 29675. 830. o
2362 1 -3 3 -21 31882. 29675. 830. o
2363 2 -1 4 -21 25172. 28794. 293. o
2363 1 1 4 21 25172. 28794. 293. o
2364 2 -1 4 21 25182. 26898. 351. o
2364 1 1 4 -21 25182. 26898. 351. o
2365 2 -2 4 -21 703. 104. 249. <
2365 1 2 4 21 703. 104. 249. <
2366 2 -2 4 21 703. -52. 352. <
2366 1 2 4 -21 703. -52. 352. <
2367 2 -3 4 -21 4038. 3844. 249. o
2367 1 3 4 21 4038. 3844. 249. o
2368 3 0 -4 24 4057. 5129. 848. o
2368 2 -3 4 21 4057. 5129. 848. o
2368 1 3 4 -21 4057. 5129. 848. o
2369 2 3 4 21 4038. 4093. 456. o
2369 1 -3 4 -21 4038. 4093. 456. o
2370 2 -4 4 -21 796. 238. 311. <
2370 1 4 4 21 796. 238. 311. <
2371 2 -4 4 21 794. -290. 477. <
2371 1 4 4 -21 794. -290. 477. <
2372 2 5 5 -21 8433. 8911. 464. o
2372 1 -5 5 21 8433. 8911. 464. o
2373 2 -5 5 21 8422. 9988. 793. o
2373 1 5 5 -21 8422. 9988. 793. o
2374 2 -1 5 -21 27236. 23572. 372. o
2374 1 1 5 21 27236. 23572. 372. o
2375 2 -1 5 21 27224. 23468. 489. o
2375 1 1 5 -21 27224. 23468. 489. o
2376 2 -2 5 -21 212. 632. 259. o
2376 1 2 5 21 212. 632. 259. o
2377 2 -2 5 21 212. 746. 311. o
2377 1 2 5 -21 212. 746. 311. o
2378 2 -3 5 -21 19416. 19521. 299. o
2378 1 3 5 21 19416. 19521. 299. o
2379 2 3 5 21 19405. 18692. 638. o
2379 1 -3 5 -21 19405. 18692. 638. o
2380 3 0 -5 24 19490. 18940. 719. o
2380 2 -3 5 21 19490. 18940. 719. o
2380 1 3 5 -21 19490. 18940. 719. o
2381 2 3 5 21 19405. 19293. 757. o
2381 1 -3 5 -21 19405. 19293. 757. o
2382 2 -4 5 -21 9. 477. 238. <
2382 1 4 5 21 9. 477. 238. <
2383 2 -4 5 21 9. 705. 373. <
2383 1 4 5 -21 9. 705. 373. <
2384 3 7 -5 -9 8463. 10320. 844. o
2384 2 -5 5 -21 8463. 10320. 844. o
2384 1 5 5 21 8463. 10320. 844. o
2385 2 -5 5 21 8422. 10952. 925. o
2385 1 5 5 -21 8422. 10952. 925. o
2386 2 5 6 -21 33. 518. 311. <
2386 1 -5 6 21 33. 518. 311. <
2387 2 -5 6 21 32. 1274. 403. o
2387 1 5 6 -21 32. 1274. 403. o
2388 2 -1 6 -21 6045. 7035. 263. o
2388 1 1 6 21 6045. 7035. 263. o
2389 2 -1 6 21 6050. 6683. 328. o
2389 1 1 6 -21 6050. 6683. 328. o
2390 2 -2 6 -21 87. -207. 249. <
2390 1 2 6 21 87. -207. 249. <
2391 2 -2 6 21 87. 228. 332. <
2391 1 2 6 -21 87. 228. 332. <
2392 2 -3 6 -21 2094. 3367. 266. o
2392 1 3 6 21 2094. 3367. 266. o
2393 2 3 6 21 2093. 2601. 414. o
2393 1 -3 6 -21 2093. 2601. 414. o
2394 3 0 -6 24 2095. 3865. 515. o
2394 2 -3 6 21 2095. 3865. 515. o
2394 1 3 6 -21 2095. 3865. 515. o
2395 2 -4 6 -21 222. 611. 238. o
2395 1 4 6 21 222. 611. 238. o
2396 2 -4 6 21 221. 404. 425. <
2396 1 4 6 -21 221. 404. 425. <
2397 3 7 -6 -9 34. 197. 798. <
2397 2 -5 6 -21 34. 197. 798. <
2397 1 5 6 21 34. 197. 798. <
2398 2 -5 6 21 32. 290. 725. <
2398 1 5 6 -21 32. 290. 725. <
2399 2 -6 6 -21 257. 446. 342. <
2399 1 6 6 21 257. 446. 342. <
2400 2 -6 6 21 256. 1409. 673. o
2400 1 6 6 -21 256. 1409. 673. o
2401 2 5 7 -21 5537. 5046. 323. o
2401 1 -5 7 21 5537. 5046. 323. o
2402 2 -5 7 21 5528. 5678. 538. o
2402 1 5 7 -21 5528. 5678. 538. o
2403 2 -1 7 -21 13443. 11346. 342. o
2403 1 1 7 21 13443. 11346. 342. o
2404 2 -1 7 21 13441. 10651. 435. o
2404 1 1 7 -21 13441. 10651. 435. o
2405 2 -2 7 -21 572. 1378. 269. o
2405 1 2 7 21 572. 1378. 269. o
2406 2 -2 7 21 572. 1554. 331. o
2406 1 2 7 -21 572. 1554. 331. o
2407 2 -3 7 -21 7238. 8071. 305. o
2407 1 3 7 21 7238. 8071. 305. o
2408 2 3 7 21 7233. 6186. 1255. o
2408 1 -3 7 -21 7233. 6186. 1255. o
2409 3 0 -7 24 7236. 7429. 642. o
2409 2 -3 7 21 7236. 7429. 642. o
2409 1 3 7 -21 7236. 7429. 642. o
2410 2 3 7 21 7233. 7242. 425. o
2410 1 -3 7 -21 7233. 7242. 425. o
2411 2 -4 7 -21 1440. 3771. 294. o
2411 1 4 7 21 1440. 3771. 294. o
2412 2 -4 7 21 1439. 3108. 391. o
2412 1 4 7 -21 1439. 3108. 391. o
2413 3 7 -7 -9 5539. 7211. 877. o
2413 2 -5 7 -21 5539. 7211. 877. o
2413 1 5 7 21 5539. 7211. 877. o
2414 2 -5 7 21 5528. 4041. 965. o
2414 1 5 7 -21 5528. 4041. 965. o
2415 2 -6 7 -21 36. 1098. 300. o
2415 1 6 7 21 36. 1098. 300. o
2416 2 -6 7 21 35. 1264. 393. o
2416 1 6 7 -21 35. 1264. 393. o
2417 2 -1 8 -21 317. 570. 290. <
2417 1 1 8 21 317. 570. 290. <
2418 2 -1 8 21 316. 518. 394. <
2418 1 1 8 -21 316. 518. 394. <
2419 2 -2 8 -21 97. 414. 280. <
2419 1 2 8 21 97. 414. 280. <
2420 2 -2 8 21 96. 850. 393. o
2420 1 2 8 -21 96. 850. 393. o
2421 2 -3 8 -21 69. 901. 310. o
2421 1 3 8 21 69. 901. 310. o
2422 2 3 8 21 69. 922. 1067. <
2422 1 -3 8 -21 69. 922. 1067. <
2423 3 0 -8 24 82. 238. 943. <
2423 2 -3 8 21 82. 238. 943. <
2423 1 3 8 -21 82. 238. 943. <
2424 2 3 8 21 69. 787. 404. <
2424 1 -3 8 -21 69. 787. 404. <
2425 2 -4 8 -21 190. 1098. 310. o
2425 1 4 8 21 190. 1098. 310. o
2426 2 -4 8 21 190. 922. 383. o
2426 1 4 8 -21 190. 922. 383. o
2427 2 -1 9 -21 3766. 3492. 312. o
2427 1 1 9 21 3766. 3492. 312. o
2428 2 -1 9 21 3766. 3813. 445. o
2428 1 1 9 -21 3766. 3813. 445. o
2429 2 -2 9 -21 394. 1855. 288. o
2429 1 2 9 21 394. 1855. 288. o
2430 2 -2 9 21 395. 1844. 424. o
2430 1 2 9 -21 395. 1844. 424. o
2431 2 0 0 22 160283. 168919. 1396. o
2431 1 0 0 -22 160283. 168919. 1396. o
2432 2 0 1 -22 12345. 14184. 452. o
2432 1 0 1 22 12345. 14184. 452. o
2433 2 0 1 22 12348. 13666. 435. o
2433 1 0 1 -22 12348. 13666. 435. o
2434 2 -1 1 -22 870. 1067. 373. o
2434 1 1 1 22 870. 1067. 373. o
2435 2 -1 1 22 868. 984. 414. o
2435 1 1 1 -22 868. 984. 414. o
2436 2 0 2 -22 85609. 95510. 198. o
2436 1 0 2 22 85609. 95510. 198. o
2437 2 0 2 22 85632. 88464. 591. o
2437 1 0 2 -22 85632. 88464. 591. o
2438 2 -1 2 -22 1233. 1824. 268. o
2438 1 1 2 22 1233. 1824. 268. o
2439 2 -1 2 22 1232. 1834. 279. o
2439 1 1 2 -22 1232. 1834. 279. o
2440 2 -2 2 -22 74518. 78600. 636. o
2440 1 2 2 22 74518. 78600. 636. o
2441 3 -1 -2 23 74561. 77150. 1114. o
2441 2 -2 2 22 74561. 77150. 1114. o
2441 1 2 2 -22 74561. 77150. 1114. o
2442 2 2 2 22 74546. 73896. 1223. o
2442 1 -2 2 -22 74546. 73896. 1223. o
2443 2 0 3 -22 1188. 663. 373. <
2443 1 0 3 22 1188. 663. 373. <
2444 2 0 3 22 1188. 995. 425. o
2444 1 0 3 -22 1188. 995. 425. o
2445 2 -1 3 -22 7632. 5201. 333. o
2445 1 1 3 22 7632. 5201. 333. o
2446 2 -1 3 22 7635. 4849. 344. o
2446 1 1 3 -22 7635. 4849. 344. o
2447 2 -2 3 -22 12632. 12724. 279. o
2447 1 2 3 22 12632. 12724. 279. o
2448 2 2 3 22 12633. 11418. 1319. o
2448 1 -2 3 -22 12633. 11418. 1319. o
2449 3 -1 -3 23 12764. 12703. 767. o
2449 2 -2 3 22 12764. 12703. 767. o
2449 1 2 3 -22 12764. 12703. 767. o
2450 2 2 3 22 12633. 11553. 423. o
2450 1 -2 3 -22 12633. 11553. 423. o
2451 2 -3 3 -22 2455. 870. 323. o
2451 1 3 3 22 2455. 870. 323. o
2452 2 -3 3 22 2455. 1544. 571. o
2452 1 3 3 -22 2455. 1544. 571. o
2453 2 0 4 -22 29808. 26463. 545. o
2453 1 0 4 22 29808. 26463. 545. o
2454 2 0 4 22 29820. 24473. 604. o
2454 1 0 4 -22 29820. 24473. 604. o
2455 2 -1 4 -22 3158. 2673. 281. o
2455 1 1 4 22 3158. 2673. 281. o
2456 2 -1 4 22 3160. 3253. 321. o
2456 1 1 4 -22 3160. 3253. 321. o
2457 2 -2 4 -22 15699. 13874. 304. o
2457 1 2 4 22 15699. 13874. 304. o
2458 3 -1 -4 23 15742. 15044. 884. o
2458 2 -2 4 22 15742. 15044. 884. o
2458 1 2 4 -22 15742. 15044. 884. o
2459 2 2 4 22 15720. 13314. 495. o
2459 1 -2 4 -22 15720. 13314. 495. o
2460 2 -3 4 -22 1596. 1181. 239. o
2460 1 3 4 22 1596. 1181. 239. o
2461 2 -3 4 22 1597. 1585. 342. o
2461 1 3 4 -22 1597. 1585. 342. o
2462 2 -4 4 -22 14286. 13148. 404. o
2462 1 4 4 22 14286. 13148. 404. o
2463 2 -4 4 22 14296. 13563. 575. o
2463 1 4 4 -22 14296. 13563. 575. o
2464 2 0 5 -22 12784. 13397. 493. o
2464 1 0 5 22 12784. 13397. 493. o
2465 2 0 5 22 12777. 12817. 518. o
2465 1 0 5 -22 12777. 12817. 518. o
2466 2 -1 5 -22 112. 373. 249. <
2466 1 1 5 22 112. 373. 249. <
2467 2 -1 5 22 112. 269. 342. <
2467 1 1 5 -22 112. 269. 342. <
2468 2 -2 5 -22 120. 891. 248. o
2468 1 2 5 22 120. 891. 248. o
2469 2 2 5 22 120. -518. 725. <
2469 1 -2 5 -22 120. -518. 725. <
2470 3 -1 -5 23 128. 1710. 559. o
2470 2 -2 5 22 128. 1710. 559. o
2470 1 2 5 -22 128. 1710. 559. o
2471 2 2 5 22 120. -93. 394. <
2471 1 -2 5 -22 120. -93. 394. <
2472 2 -3 5 -22 7642. 5854. 271. o
2472 1 3 5 22 7642. 5854. 271. o
2473 2 -3 5 22 7642. 6258. 420. o
2473 1 3 5 -22 7642. 6258. 420. o
2474 2 -4 5 -22 1741. 1129. 239. o
2474 1 4 5 22 1741. 1129. 239. o
2475 2 -4 5 22 1740. 1067. 322. o
2475 1 4 5 -22 1740. 1067. 322. o
2476 2 -5 5 -22 325. 943. 362. o
2476 1 5 5 22 325. 943. 362. o
2477 2 -5 5 22 325. 166. 477. <
2477 1 5 5 -22 325. 166. 477. <
2478 2 6 6 -22 5373. 7595. 542. o
2478 1 -6 6 22 5373. 7595. 542. o
2479 2 -6 6 22 5373. 8030. 1042. o
2479 1 6 6 -22 5373. 8030. 1042. o
2480 2 0 6 -22 3231. 311. 407. <
2480 1 0 6 22 3231. 311. 407. <
2481 2 0 6 22 3233. 560. 541. <
2481 1 0 6 -22 3233. 560. 541. <
2482 2 -1 6 -22 2095. 1606. 270. o
2482 1 1 6 22 2095. 1606. 270. o
2483 2 -1 6 22 2094. 1451. 332. o
2483 1 1 6 -22 2094. 1451. 332. o
2484 2 -2 6 -22 4538. 2290. 296. o
2484 1 2 6 22 4538. 2290. 296. o
2485 3 -1 -6 23 4545. 2912. 676. o
2485 2 -2 6 22 4545. 2912. 676. o
2485 1 2 6 -22 4545. 2912. 676. o
2486 2 2 6 22 4539. 2269. 378. o
2486 1 -2 6 -22 4539. 2269. 378. o
2487 2 -3 6 -22 1318. 394. 229. <
2487 1 3 6 22 1318. 394. 229. <
2488 2 -3 6 22 1318. 767. 342. o
2488 1 3 6 -22 1318. 767. 342. o
2489 2 -4 6 -22 2790. 2538. 280. o
2489 1 4 6 22 2790. 2538. 280. o
2490 2 -4 6 22 2794. 2507. 353. o
2490 1 4 6 -22 2794. 2507. 353. o
2491 2 -5 6 -22 1464. 1409. 280. o
2491 1 5 6 22 1464. 1409. 280. o
2492 2 -5 6 22 1466. 912. 384. o
2492 1 5 6 -22 1466. 912. 384. o
2493 3 8 -6 -8 5387. 8227. 937. o
2493 2 -6 6 -22 5387. 8227. 937. o
2493 1 6 6 22 5387. 8227. 937. o
2494 2 -6 6 22 5373. 5523. 746. o
2494 1 6 6 -22 5373. 5523. 746. o
2495 2 6 7 -22 254. 746. 300. o
2495 1 -6 7 22 254. 746. 300. o
2496 2 -6 7 22 253. 964. 476. o
2496 1 6 7 -22 253. 964. 476. o
2497 2 0 7 -22 102. -124. 363. <
2497 1 0 7 22 102. -124. 363. <
2498 2 0 7 22 102. 352. 580. <
2498 1 0 7 -22 102. 352. 580. <
2499 2 -1 7 -22 1056. 1109. 290. o
2499 1 1 7 22 1056. 1109. 290. o
2500 2 -1 7 22 1057. 1036. 404. o
2500 1 1 7 -22 1057. 1036. 404. o
2501 2 -2 7 -22 1411. 2010. 279. o
2501 1 2 7 22 1411. 2010. 279. o
2502 2 2 7 22 1411. 891. 746. <
2502 1 -2 7 -22 1411. 891. 746. <
2503 3 -1 -7 23 1414. 756. 549. <
2503 2 -2 7 22 1414. 756. 549. <
2503 1 2 7 -22 1414. 756. 549. <
2504 2 2 7 22 1411. 1399. 404. o
2504 1 -2 7 -22 1411. 1399. 404. o
2505 2 -3 7 -22 30. 269. 259. <
2505 1 3 7 22 30. 269. 259. <
2506 2 -3 7 22 30. 715. 362. <
2506 1 3 7 -22 30. 715. 362. <
2507 2 -4 7 -22 482. 1285. 321. o
2507 1 4 7 22 482. 1285. 321. o
2508 2 -4 7 22 482. 943. 404. o
2508 1 4 7 -22 482. 943. 404. o
2509 2 -5 7 -22 841. 1337. 310. o
2509 1 5 7 22 841. 1337. 310. o
2510 2 -5 7 22 840. 1482. 445. o
2510 1 5 7 -22 840. 1482. 445. o
2511 3 8 -7 -8 254. 1730. 942. <
2511 2 -6 7 -22 254. 1730. 942. <
2511 1 6 7 22 254. 1730. 942. <
2512 2 -6 7 22 253. 570. 984. <
2512 1 6 7 -22 253. 570. 984. <
2513 2 0 8 -22 669. 155. 446. <
2513 1 0 8 22 669. 155. 446. <
2514 2 0 8 22 670. 1098. 621. <
2514 1 0 8 -22 670. 1098. 621. <
2515 2 -1 8 -22 462. 622. 269. o
2515 1 1 8 22 462. 622. 269. o
2516 2 -1 8 22 463. 673. 363. <
2516 1 1 8 -22 463. 673. 363. <
2517 2 -2 8 -22 736. 383. 311. <
2517 1 2 8 22 736. 383. 311. <
2518 3 -1 -8 23 740. 1171. 673. <
2518 2 -2 8 22 740. 1171. 673. <
2518 1 2 8 -22 740. 1171. 673. <
2519 2 2 8 22 738. 642. 435. <
2519 1 -2 8 -22 738. 642. 435. <
2520 2 -3 8 -22 1788. 2052. 310. o
2520 1 3 8 22 1788. 2052. 310. o
2521 2 -3 8 22 1788. 1813. 332. o
2521 1 3 8 -22 1788. 1813. 332. o
2522 2 -4 8 -22 2428. 2518. 311. o
2522 1 4 8 22 2428. 2518. 311. o
2523 2 -4 8 22 2429. 2362. 415. o
2523 1 4 8 -22 2429. 2362. 415. o
2524 2 0 9 -22 491. 632. 477. <
2524 1 0 9 22 491. 632. 477. <
2525 2 0 9 22 491. 0. 549. <
2525 1 0 9 -22 491. 0. 549. <
2526 2 -1 9 -22 325. 933. 300. o
2526 1 1 9 22 325. 933. 300. o
2527 2 -1 9 22 324. 1751. 444. o
2527 1 1 9 -22 324. 1751. 444. o
2528 2 -2 9 -22 554. 1098. 310. o
2528 1 2 9 22 554. 1098. 310. o
2529 3 -1 -9 23 556. 2020. 922. o
2529 2 -2 9 22 556. 2020. 922. o
2529 1 2 9 -22 556. 2020. 922. o
2530 2 2 9 22 555. 1181. 528. o
2530 1 -2 9 -22 555. 1181. 528. o
2531 2 -1 1 -23 74565. 84133. 163. o
2531 1 1 1 23 74565. 84133. 163. o
2532 2 1 1 23 74582. 76735. 1144. o
2532 1 -1 1 -23 74582. 76735. 1144. o
2533 3 -2 -1 22 74588. 80952. 751. o
2533 2 -1 1 23 74588. 80952. 751. o
2533 1 1 1 -23 74588. 80952. 751. o
2534 2 1 1 23 74582. 80756. 1336. o
2534 1 -1 1 -23 74582. 80756. 1336. o
2535 2 -1 2 -23 2770. 3512. 267. o
2535 1 1 2 23 2770. 3512. 267. o
2536 2 1 2 23 2767. 2943. 590. o
2536 1 -1 2 -23 2767. 2943. 590. o
2537 3 -2 -2 22 3177. 3896. 828. o
2537 2 -1 2 23 3177. 3896. 828. o
2537 1 1 2 -23 3177. 3896. 828. o
2538 2 1 2 23 2767. 3430. 423. o
2538 1 -1 2 -23 2767. 3430. 423. o
2539 3 -2 -2 22 3177. 3108. 756. o
2539 2 -1 2 23 3177. 3108. 756. o
2539 1 1 2 -23 3177. 3108. 756. o
2540 2 1 2 23 2767. 3222. 849. o
2540 1 -1 2 -23 2767. 3222. 849. o
2541 2 -2 2 -23 3954. 2777. 437. o
2541 1 2 2 23 3954. 2777. 437. o
2542 2 -2 2 23 3954. 2414. 479. o
2542 1 2 2 -23 3954. 2414. 479. o
2543 2 -1 3 -23 23899. 24732. 369. o
2543 1 1 3 23 23899. 24732. 369. o
2544 3 -2 -3 22 23972. 26649. 870. o
2544 2 -1 3 23 23972. 26649. 870. o
2544 1 1 3 -23 23972. 26649. 870. o
2545 2 1 3 23 23903. 23903. 435. o
2545 1 -1 3 -23 23903. 23903. 435. o
2546 2 -2 3 -23 539. 207. 238. <
2546 1 2 3 23 539. 207. 238. <
2547 2 -2 3 23 537. 114. 352. <
2547 1 2 3 -23 537. 114. 352. <
2548 2 -3 3 -23 9321. 10113. 378. o
2548 1 3 3 23 9321. 10113. 378. o
2549 2 -3 3 23 9320. 9885. 505. o
2549 1 3 3 -23 9320. 9885. 505. o
2550 2 -1 4 -23 4053. 4673. 277. o
2550 1 1 4 23 4053. 4673. 277. o
2551 3 -2 -4 22 4139. 6103. 815. o
2551 2 -1 4 23 4139. 6103. 815. o
2551 1 1 4 -23 4139. 6103. 815. o
2552 2 1 4 23 4052. 4176. 373. o
2552 1 -1 4 -23 4052. 4176. 373. o
2553 2 -2 4 -23 4819. 3264. 265. o
2553 1 2 4 23 4819. 3264. 265. o
2554 2 -2 4 23 4819. 3025. 367. o
2554 1 2 4 -23 4819. 3025. 367. o
2555 2 -3 4 -23 714. 798. 228. o
2555 1 3 4 23 714. 798. 228. o
2556 2 -3 4 23 713. 787. 342. o
2556 1 3 4 -23 713. 787. 342. o
2557 2 -4 4 -23 4371. 3875. 364. o
2557 1 4 4 23 4371. 3875. 364. o
2558 2 -4 4 23 4374. 3461. 489. o
2558 1 4 4 -23 4374. 3461. 489. o
2559 2 -1 5 -23 1499. 933. 270. o
2559 1 1 5 23 1499. 933. 270. o
2560 3 -2 -5 22 1500. 2083. 808. o
2560 2 -1 5 23 1500. 2083. 808. o
2560 1 1 5 -23 1500. 2083. 808. o
2561 2 1 5 23 1499. 912. 394. o
2561 1 -1 5 -23 1499. 912. 394. o
2562 2 -2 5 -23 776. 73. 259. <
2562 1 2 5 23 776. 73. 259. <
2563 2 -2 5 23 776. 187. 332. <
2563 1 2 5 -23 776. 187. 332. <
2564 2 -3 5 -23 1353. 1140. 270. o
2564 1 3 5 23 1353. 1140. 270. o
2565 2 -3 5 23 1354. 1451. 425. o
2565 1 3 5 -23 1354. 1451. 425. o
2566 2 -4 5 -23 590. 1067. 259. o
2566 1 4 5 23 590. 1067. 259. o
2567 2 -4 5 23 592. 839. 404. o
2567 1 4 5 -23 592. 839. 404. o
2568 2 -5 5 -23 1260. 1917. 351. o
2568 1 5 5 23 1260. 1917. 351. o
2569 2 -5 5 23 1263. 1647. 580. o
2569 1 5 5 -23 1263. 1647. 580. o
2570 2 -1 6 -23 1190. 1565. 269. o
2570 1 1 6 23 1190. 1565. 269. o
2571 3 -2 -6 22 1214. 2362. 735. o
2571 2 -1 6 23 1214. 2362. 735. o
2571 1 1 6 -23 1214. 2362. 735. o
2572 2 1 6 23 1189. 1160. 373. o
2572 1 -1 6 -23 1189. 1160. 373. o
2573 2 -2 6 -23 921. 1036. 269. o
2573 1 2 6 23 921. 1036. 269. o
2574 2 -2 6 23 920. 1378. 321. o
2574 1 2 6 -23 920. 1378. 321. o
2575 2 -3 6 -23 219. 383. 280. <
2575 1 3 6 23 219. 383. 280. <
2576 2 -3 6 23 218. 580. 342. <
2576 1 3 6 -23 218. 580. 342. <
2577 2 -4 6 -23 1566. 1202. 260. o
2577 1 4 6 23 1566. 1202. 260. o
2578 2 -4 6 23 1567. 1368. 363. o
2578 1 4 6 -23 1567. 1368. 363. o
2579 2 -5 6 -23 160. 383. 269. <
2579 1 5 6 23 160. 383. 269. <
2580 2 -5 6 23 161. 487. 394. <
2580 1 5 6 -23 161. 487. 394. <
2581 2 -6 6 -23 233. 922. 373. o
2581 1 6 6 23 233. 922. 373. o
2582 2 -6 6 23 234. 870. 601. <
2582 1 6 6 -23 234. 870. 601. <
2583 2 -1 7 -23 567. 2000. 278. o
2583 1 1 7 23 567. 2000. 278. o
2584 3 -2 -7 22 572. 1005. 777. <
2584 2 -1 7 23 572. 1005. 777. <
2584 1 1 7 -23 572. 1005. 777. <
2585 2 1 7 23 564. 1834. 548. o
2585 1 -1 7 -23 564. 1834. 548. o
2586 2 -2 7 -23 776. 539. 290. <
2586 1 2 7 23 776. 539. 290. <
2587 2 -2 7 23 777. 694. 321. o
2587 1 2 7 -23 777. 694. 321. o
2588 2 -3 7 -23 106. 466. 290. <
2588 1 3 7 23 106. 466. 290. <
2589 2 -3 7 23 106. 300. 352. <
2589 1 3 7 -23 106. 300. 352. <
2590 2 -4 7 -23 960. 632. 249. o
2590 1 4 7 23 960. 632. 249. o
2591 2 -4 7 23 962. 860. 415. o
2591 1 4 7 -23 962. 860. 415. o
2592 2 -5 7 -23 599. 1057. 290. o
2592 1 5 7 23 599. 1057. 290. o
2593 2 -5 7 23 601. 2031. 434. o
2593 1 5 7 -23 601. 2031. 434. o
2594 2 -1 8 -23 281. 580. 280. o
2594 1 1 8 23 281. 580. 280. o
2595 3 -2 -8 22 286. 1948. 828. o
2595 2 -1 8 23 286. 1948. 828. o
2595 1 1 8 -23 286. 1948. 828. o
2596 2 1 8 23 281. 839. 445. <
2596 1 -1 8 -23 281. 839. 445. <
2597 2 -2 8 -23 44. 570. 290. <
2597 1 2 8 23 44. 570. 290. <
2598 2 -2 8 23 44. 881. 404. o
2598 1 2 8 -23 44. 881. 404. o
2599 2 -3 8 -23 154. 1502. 320. o
2599 1 3 8 23 154. 1502. 320. o
2600 2 -3 8 23 153. 891. 352. o
2600 1 3 8 -23 153. 891. 352. o
2601 2 -4 8 -23 3. 1129. 300. o
2601 1 4 8 23 3. 1129. 300. o
2602 2 -4 8 23 3. 383. 414. <
2602 1 4 8 -23 3. 383. 414. <
2603 2 -1 9 -23 164. 1181. 320. o
2603 1 1 9 23 164. 1181. 320. o
2604 2 1 9 23 163. 705. 684. <
2604 1 -1 9 -23 163. 705. 684. <
2605 3 -2 -9 22 166. 2549. 942. o
2605 2 -1 9 23 166. 2549. 942. o
2605 1 1 9 -23 166. 2549. 942. o
2606 2 1 9 23 163. 2052. 589. o
2606 1 -1 9 -23 163. 2052. 589. o
2607 3 -4 0 -36 2314. 249. 643. <
2607 2 8 0 -24 2314. 249. 643. <
2607 1 -8 0 24 2314. 249. 643. <
2608 2 0 0 -24 3848. 1637. 738. o
2608 1 0 0 24 3848. 1637. 738. o
2609 2 0 0 24 3847. 3419. 757. o
2609 1 0 0 -24 3847. 3419. 757. o
2610 2 -1 0 -24 15087. 12320. 617. o
2610 1 1 0 24 15087. 12320. 617. o
2611 2 -1 0 24 15092. 11491. 561. o
2611 1 1 0 -24 15092. 11491. 561. o
2612 2 -2 0 -24 985. 767. 580. <
2612 1 2 0 24 985. 767. 580. <
2613 2 -2 0 24 981. 601. 549. <
2613 1 2 0 -24 981. 601. 549. <
2614 2 -3 0 -24 7077. 6341. 572. o
2614 1 3 0 24 7077. 6341. 572. o
2615 2 -3 0 24 7073. 6092. 562. o
2615 1 3 0 -24 7073. 6092. 562. o
2616 2 -4 0 -24 3336. 1875. 561. o
2616 1 4 0 24 3336. 1875. 561. o
2617 2 -4 0 24 3348. 2228. 561. o
2617 1 4 0 -24 3348. 2228. 561. o
2618 2 -5 0 -24 15784. 16402. 628. o
2618 1 5 0 24 15784. 16402. 628. o
2619 2 -5 0 24 15769. 14444. 671. o
2619 1 5 0 -24 15769. 14444. 671. o
2620 2 -6 0 -24 336. 591. 456. <
2620 1 6 0 24 336. 591. 456. <
2621 2 -6 0 24 336. -477. 912. <
2621 1 6 0 -24 336. -477. 912. <
2622 2 -7 0 -24 521. 394. 414. <
2622 1 7 0 24 521. 394. 414. <
2623 2 -7 0 24 520. 632. 891. <
2623 1 7 0 -24 520. 632. 891. <
2624 3 10 0 -6 2312. 984. 850. <
2624 2 -8 0 -24 2312. 984. 850. <
2624 1 8 0 24 2312. 984. 850. <
2625 3 -10 0 6 2316. 1533. 1026. <
2625 2 8 0 24 2316. 1533. 1026. <
2625 1 -8 0 -24 2316. 1533. 1026. <
2626 3 3 -1 -21 15365. 13107. 564. o
2626 2 0 1 -24 15365. 13107. 564. o
2626 1 0 1 24 15365. 13107. 564. o
2627 3 -3 -1 21 15369. 12154. 660. o
2627 2 0 1 24 15369. 12154. 660. o
2627 1 0 1 -24 15369. 12154. 660. o
2628 2 -1 1 -24 19700. 21873. 439. o
2628 1 1 1 24 19700. 21873. 439. o
2629 2 -1 1 24 19698. 22494. 486. o
2629 1 1 1 -24 19698. 22494. 486. o
2630 3 3 -2 -21 1009. 477. 601. <
2630 2 0 2 -24 1009. 477. 601. <
2630 1 0 2 24 1009. 477. 601. <
2631 3 -3 -2 21 1004. 477. 549. <
2631 2 0 2 24 1004. 477. 549. <
2631 1 0 2 -24 1004. 477. 549. <
2632 2 -1 2 -24 1211. 166. 270. <
2632 1 1 2 24 1211. 166. 270. <
2633 2 -1 2 24 1209. 124. 260. <
2633 1 1 2 -24 1209. 124. 260. <
2634 2 -2 2 -24 3460. 3512. 414. o
2634 1 2 2 24 3460. 3512. 414. o
2635 2 -2 2 24 3472. 3533. 487. o
2635 1 2 2 -24 3472. 3533. 487. o
2636 3 3 -3 -21 7253. 6258. 511. o
2636 2 0 3 -24 7253. 6258. 511. o
2636 1 0 3 24 7253. 6258. 511. o
2637 3 -3 -3 21 7249. 6652. 603. o
2637 2 0 3 24 7249. 6652. 603. o
2637 1 0 3 -24 7249. 6652. 603. o
2638 2 -1 3 -24 19285. 19365. 372. o
2638 1 1 3 24 19285. 19365. 372. o
2639 2 -1 3 24 19285. 18775. 360. o
2639 1 1 3 -24 19285. 18775. 360. o
2640 2 -2 3 -24 16498. 14257. 320. o
2640 1 2 3 24 16498. 14257. 320. o
2641 2 -2 3 24 16503. 13791. 410. o
2641 1 2 3 -24 16503. 13791. 410. o
2642 2 -3 3 -24 10177. 12475. 364. o
2642 1 3 3 24 10177. 12475. 364. o
2643 2 -3 3 24 10177. 10776. 431. o
2643 1 3 3 -24 10177. 10776. 431. o
2644 3 3 -4 -21 3358. 2352. 602. o
2644 2 0 4 -24 3358. 2352. 602. o
2644 1 0 4 24 3358. 2352. 602. o
2645 3 -3 -4 21 3371. 1917. 727. o
2645 2 0 4 24 3371. 1917. 727. o
2645 1 0 4 -24 3371. 1917. 727. o
2646 2 -1 4 -24 3086. 1554. 283. o
2646 1 1 4 24 3086. 1554. 283. o
2647 2 -1 4 24 3088. 1451. 293. o
2647 1 1 4 -24 3088. 1451. 293. o
2648 2 -2 4 -24 428. 539. 238. o
2648 1 2 4 24 428. 539. 238. o
2649 2 -2 4 24 423. 104. 373. <
2649 1 2 4 -24 423. 104. 373. <
2650 2 -3 4 -24 1402. 767. 260. o
2650 1 3 4 24 1402. 767. 260. o
2651 2 -3 4 24 1400. 1202. 342. o
2651 1 3 4 -24 1400. 1202. 342. o
2652 2 -4 4 -24 2956. 2912. 321. o
2652 1 4 4 24 2956. 2912. 321. o
2653 2 -4 4 24 2963. 2497. 560. o
2653 1 4 4 -24 2963. 2497. 560. o
2654 3 3 -5 -21 15891. 16775. 772. o
2654 2 0 5 -24 15891. 16775. 772. o
2654 1 0 5 24 15891. 16775. 772. o
2655 3 -3 -5 21 15876. 17438. 894. o
2655 2 0 5 24 15876. 17438. 894. o
2655 1 0 5 -24 15876. 17438. 894. o
2656 2 -1 5 -24 8827. 10434. 275. o
2656 1 1 5 24 8827. 10434. 275. o
2657 2 -1 5 24 8827. 10299. 373. o
2657 1 1 5 -24 8827. 10299. 373. o
2658 2 -2 5 -24 1459. 1419. 280. o
2658 1 2 5 24 1459. 1419. 280. o
2659 2 -2 5 24 1457. 1171. 363. o
2659 1 2 5 -24 1457. 1171. 363. o
2660 2 -3 5 -24 9415. 9335. 270. o
2660 1 3 5 24 9415. 9335. 270. o
2661 2 -3 5 24 9417. 8641. 368. o
2661 1 3 5 -24 9417. 8641. 368. o
2662 2 -4 5 -24 1589. 1357. 290. o
2662 1 4 5 24 1589. 1357. 290. o
2663 2 -4 5 24 1588. 1285. 353. o
2663 1 4 5 -24 1588. 1285. 353. o
2664 2 -5 5 -24 5030. 6403. 409. o
2664 1 5 5 24 5030. 6403. 409. o
2665 2 -5 5 24 5031. 5678. 485. o
2665 1 5 5 -24 5031. 5678. 485. o
2666 3 3 -6 -21 348. 238. 611. <
2666 2 0 6 -24 348. 238. 611. <
2666 1 0 6 24 348. 238. 611. <
2667 3 -3 -6 21 347. 798. 508. <
2667 2 0 6 24 347. 798. 508. <
2667 1 0 6 -24 347. 798. 508. <
2668 2 -1 6 -24 2328. 2435. 280. o
2668 1 1 6 24 2328. 2435. 280. o
2669 2 -1 6 24 2327. 1813. 343. o
2669 1 1 6 -24 2327. 1813. 343. o
2670 2 -2 6 -24 2329. 1803. 270. o
2670 1 2 6 24 2329. 1803. 270. o
2671 2 -2 6 24 2334. 1440. 353. o
2671 1 2 6 -24 2334. 1440. 353. o
2672 2 -3 6 -24 256. 715. 248. o
2672 1 3 6 24 256. 715. 248. o
2673 2 -3 6 24 256. 663. 373. <
2673 1 3 6 -24 256. 663. 373. <
2674 2 -4 6 -24 527. 238. 290. <
2674 1 4 6 24 527. 238. 290. <
2675 2 -4 6 24 525. -290. 414. <
2675 1 4 6 -24 525. -290. 414. <
2676 2 -5 6 -24 1965. 2632. 299. o
2676 1 5 6 24 1965. 2632. 299. o
2677 2 -5 6 24 1968. 3274. 402. o
2677 1 5 6 -24 1968. 3274. 402. o
2678 2 -6 6 -24 1722. 2694. 465. o
2678 1 6 6 24 1722. 2694. 465. o
2679 2 -6 6 24 1723. 1886. 642. o
2679 1 6 6 -24 1723. 1886. 642. o
2680 3 3 -7 -21 561. 218. 694. <
2680 2 0 7 -24 561. 218. 694. <
2680 1 0 7 24 561. 218. 694. <
2681 3 -3 -7 21 560. 715. 539. <
2681 2 0 7 24 560. 715. 539. <
2681 1 0 7 -24 560. 715. 539. <
2682 2 -1 7 -24 5191. 5605. 278. o
2682 1 1 7 24 5191. 5605. 278. o
2683 2 -1 7 24 5193. 5626. 361. o
2683 1 1 7 -24 5193. 5626. 361. o
2684 2 -2 7 -24 2077. 1699. 270. o
2684 1 2 7 24 2077. 1699. 270. o
2685 2 -2 7 24 2078. 1782. 342. o
2685 1 2 7 -24 2078. 1782. 342. o
2686 2 -3 7 -24 3653. 4497. 308. o
2686 1 3 7 24 3653. 4497. 308. o
2687 2 -3 7 24 3652. 4103. 413. o
2687 1 3 7 -24 3652. 4103. 413. o
2688 2 -4 7 -24 403. 943. 300. o
2688 1 4 7 24 403. 943. 300. o
2689 2 -4 7 24 402. 1088. 497. o
2689 1 4 7 -24 402. 1088. 497. o
2690 2 -5 7 -24 2461. 2808. 310. o
2690 1 5 7 24 2461. 2808. 310. o
2691 2 -5 7 24 2462. 3077. 455. o
2691 1 5 7 -24 2462. 3077. 455. o
2692 3 3 -8 -21 2304. 1368. 747. <
2692 2 0 8 -24 2304. 1368. 747. <
2692 1 0 8 24 2304. 1368. 747. <
2693 3 -3 -8 21 2308. 1886. 632. o
2693 2 0 8 24 2308. 1886. 632. o
2693 1 0 8 -24 2308. 1886. 632. o
2694 2 -1 8 -24 211. 1109. 269. o
2694 1 1 8 24 211. 1109. 269. o
2695 2 -1 8 24 211. 1181. 414. o
2695 1 1 8 -24 211. 1181. 414. o
2696 2 -2 8 -24 48. 1150. 310. o
2696 1 2 8 24 48. 1150. 310. o
2697 2 -2 8 24 49. 839. 404. o
2697 1 2 8 -24 49. 839. 404. o
2698 2 -3 8 -24 2066. 3709. 306. o
2698 1 3 8 24 2066. 3709. 306. o
2699 2 -3 8 24 2066. 3336. 381. o
2699 1 3 8 -24 2066. 3336. 381. o
2700 2 -4 8 -24 1261. 1969. 310. o
2700 1 4 8 24 1261. 1969. 310. o
2701 2 -4 8 24 1263. 1461. 435. o
2701 1 4 8 -24 1263. 1461. 435. o
2702 2 1 1 -25 57228. 68136. 558. o
2702 1 -1 1 25 57228. 68136. 558. o
2703 2 -1 1 25 57225. 68094. 590. o
2703 1 1 1 -25 57225. 68094. 590. o
2704 3 4 -1 -20 57320. 69265. 674. o
2704 2 -1 1 -25 57320. 69265. 674. o
2704 1 1 1 25 57320. 69265. 674. o
2705 2 -1 1 25 57225. 64530. 743. o
2705 1 1 1 -25 57225. 64530. 743. o
2706 2 1 2 -25 1377. 1026. 322. o
2706 1 -1 2 25 1377. 1026. 322. o
2707 2 -1 2 25 1376. 943. 280. o
2707 1 1 2 -25 1376. 943. 280. o
2708 3 4 -2 -20 1431. 860. 632. <
2708 2 -1 2 -25 1431. 860. 632. <
2708 1 1 2 25 1431. 860. 632. <
2709 2 -1 2 25 1376. 663. 529. <
2709 1 1 2 -25 1376. 663. 529. <
2710 2 -2 2 -25 4086. 1927. 428. o
2710 1 2 2 25 4086. 1927. 428. o
2711 2 -2 2 25 4085. 2186. 449. o
2711 1 2 2 -25 4085. 2186. 449. o
2712 2 1 3 -25 20465. 20950. 345. o
2712 1 -1 3 25 20465. 20950. 345. o
2713 2 -1 3 25 20456. 20225. 387. o
2713 1 1 3 -25 20456. 20225. 387. o
2714 3 4 -3 -20 20511. 21914. 882. o
2714 2 -1 3 -25 20511. 21914. 882. o
2714 1 1 3 25 20511. 21914. 882. o
2715 2 -1 3 25 20456. 20360. 819. o
2715 1 1 3 -25 20456. 20360. 819. o
2716 2 -2 3 -25 806. 933. 259. o
2716 1 2 3 25 806. 933. 259. o
2717 2 -2 3 25 804. 228. 363. <
2717 1 2 3 -25 804. 228. 363. <
2718 2 -3 3 -25 9881. 11159. 416. o
2718 1 3 3 25 9881. 11159. 416. o
2719 2 -3 3 25 9869. 11314. 552. o
2719 1 3 3 -25 9869. 11314. 552. o
2720 2 1 4 -25 1131. 1243. 280. o
2720 1 -1 4 25 1131. 1243. 280. o
2721 2 -1 4 25 1131. 1015. 332. o
2721 1 1 4 -25 1131. 1015. 332. o
2722 3 4 -4 -20 1414. 1451. 787. <
2722 2 -1 4 -25 1414. 1451. 787. <
2722 1 1 4 25 1414. 1451. 787. <
2723 2 -1 4 25 1131. 1668. 694. o
2723 1 1 4 -25 1131. 1668. 694. o
2724 2 -2 4 -25 3355. 2580. 272. o
2724 1 2 4 25 3355. 2580. 272. o
2725 2 -2 4 25 3354. 2176. 334. o
2725 1 2 4 -25 3354. 2176. 334. o
2726 2 -3 4 -25 317. 539. 249. o
2726 1 3 4 25 317. 539. 249. o
2727 2 -3 4 25 317. -62. 342. <
2727 1 3 4 -25 317. -62. 342. <
2728 2 -4 4 -25 6394. 3606. 392. o
2728 1 4 4 25 6394. 3606. 392. o
2729 2 -4 4 25 6397. 4383. 595. o
2729 1 4 4 -25 6397. 4383. 595. o
2730 2 1 5 -25 2970. 1430. 283. o
2730 1 -1 5 25 2970. 1430. 283. o
2731 2 -1 5 25 2971. 1399. 375. o
2731 1 1 5 -25 2971. 1399. 375. o
2732 3 4 -5 -20 3023. 2228. 581. o
2732 2 -1 5 -25 3023. 2228. 581. o
2732 1 1 5 25 3023. 2228. 581. o
2733 2 -1 5 25 2971. 1419. 582. o
2733 1 1 5 -25 2971. 1419. 582. o
2734 2 -2 5 -25 377. 332. 280. <
2734 1 2 5 25 377. 332. 280. <
2735 2 -2 5 25 376. 187. 311. <
2735 1 2 5 -25 376. 187. 311. <
2736 2 -3 5 -25 4044. 3357. 272. o
2736 1 3 5 25 4044. 3357. 272. o
2737 2 -3 5 25 4039. 3917. 415. o
2737 1 3 5 -25 4039. 3917. 415. o
2738 2 -4 5 -25 526. 290. 249. <
2738 1 4 5 25 526. 290. 249. <
2739 2 -4 5 25 526. -83. 352. <
2739 1 4 5 -25 526. -83. 352. <
2740 2 -5 5 -25 3952. 5201. 411. o
2740 1 5 5 25 3952. 5201. 411. o
2741 2 -5 5 25 3949. 4663. 548. o
2741 1 5 5 -25 3949. 4663. 548. o
2742 2 1 6 -25 387. 539. 290. <
2742 1 -1 6 25 387. 539. 290. <
2743 2 -1 6 25 387. 197. 363. <
2743 1 1 6 -25 387. 197. 363. <
2744 3 4 -6 -20 397. -435. 715. <
2744 2 -1 6 -25 397. -435. 715. <
2744 1 1 6 25 397. -435. 715. <
2745 2 -1 6 25 387. 725. 570. <
2745 1 1 6 -25 387. 725. 570. <
2746 2 -2 6 -25 1351. 1088. 270. o
2746 1 2 6 25 1351. 1088. 270. o
2747 2 -2 6 25 1350. 477. 373. <
2747 1 2 6 -25 1350. 477. 373. <
2748 2 -3 6 -25 403. 819. 248. o
2748 1 3 6 25 403. 819. 248. o
2749 2 -3 6 25 404. 280. 394. <
2749 1 3 6 -25 404. 280. 394. <
2750 2 -4 6 -25 491. 1243. 289. o
2750 1 4 6 25 491. 1243. 289. o
2751 2 -4 6 25 492. 912. 352. o
2751 1 4 6 -25 492. 912. 352. o
2752 2 -5 6 -25 5. 777. 259. o
2752 1 5 6 25 5. 777. 259. o
2753 2 -5 6 25 5. 1202. 331. o
2753 1 5 6 -25 5. 1202. 331. o
2754 2 -6 6 -25 987. 1295. 425. o
2754 1 6 6 25 987. 1295. 425. o
2755 2 -6 6 25 988. 1337. 539. o
2755 1 6 6 -25 988. 1337. 539. o
2756 2 1 7 -25 615. 870. 311. o
2756 1 -1 7 25 615. 870. 311. o
2757 2 -1 7 25 618. 259. 373. <
2757 1 1 7 -25 618. 259. 373. <
2758 3 4 -7 -20 623. 352. 591. <
2758 2 -1 7 -25 623. 352. 591. <
2758 1 1 7 25 623. 352. 591. <
2759 2 -1 7 25 618. 1005. 839. <
2759 1 1 7 -25 618. 1005. 839. <
2760 2 -2 7 -25 553. 176. 301. <
2760 1 2 7 25 553. 176. 301. <
2761 2 -2 7 25 553. 933. 373. o
2761 1 2 7 -25 553. 933. 373. o
2762 2 -3 7 -25 1530. 1015. 280. o
2762 1 3 7 25 1530. 1015. 280. o
2763 2 -3 7 25 1530. 1326. 404. o
2763 1 3 7 -25 1530. 1326. 404. o
2764 2 -4 7 -25 570. 653. 321. o
2764 1 4 7 25 570. 653. 321. o
2765 2 -4 7 25 570. 1616. 434. o
2765 1 4 7 -25 570. 1616. 434. o
2766 2 -5 7 -25 3518. 4590. 317. o
2766 1 5 7 25 3518. 4590. 317. o
2767 2 -5 7 25 3517. 5854. 417. o
2767 1 5 7 -25 3517. 5854. 417. o
2768 2 1 8 -25 270. 943. 310. o
2768 1 -1 8 25 270. 943. 310. o
2769 2 -1 8 25 270. 1005. 466. o
2769 1 1 8 -25 270. 1005. 466. o
2770 3 4 -8 -20 330. 1927. 807. o
2770 2 -1 8 -25 330. 1927. 807. o
2770 1 1 8 25 330. 1927. 807. o
2771 2 -1 8 25 270. 1720. 891. <
2771 1 1 8 -25 270. 1720. 891. <
2772 2 -2 8 -25 83. 912. 331. o
2772 1 2 8 25 83. 912. 331. o
2773 2 -2 8 25 83. 933. 435. o
2773 1 2 8 -25 83. 933. 435. o
2774 2 -3 8 -25 176. 756. 290. o
2774 1 3 8 25 176. 756. 290. o
2775 2 -3 8 25 177. 1057. 383. o
2775 1 3 8 -25 177. 1057. 383. o
2776 2 0 0 -26 60519. 52127. 1111. o
2776 1 0 0 26 60519. 52127. 1111. o
2777 2 0 0 26 60479. 54438. 1217. o
2777 1 0 0 -26 60479. 54438. 1217. o
2778 2 0 1 -26 1666. 560. 374. <
2778 1 0 1 26 1666. 560. 374. <
2779 2 0 1 26 1664. 560. 332. <
2779 1 0 1 -26 1664. 560. 332. <
2780 2 -1 1 -26 14680. 14879. 423. o
2780 1 1 1 26 14680. 14879. 423. o
2781 2 -1 1 26 14681. 14703. 445. o
2781 1 1 1 -26 14681. 14703. 445. o
2782 2 2 2 -26 22659. 18567. 656. o
2782 1 -2 2 26 22659. 18567. 656. o
2783 2 -2 2 26 22642. 19127. 862. o
2783 1 2 2 -26 22642. 19127. 862. o
2784 2 0 2 -26 25616. 30265. 432. o
2784 1 0 2 26 25616. 30265. 432. o
2785 2 0 2 26 25607. 28421. 465. o
2785 1 0 2 -26 25607. 28421. 465. o
2786 2 -1 2 -26 9767. 8724. 329. o
2786 1 1 2 26 9767. 8724. 329. o
2787 2 -1 2 26 9773. 8009. 304. o
2787 1 1 2 -26 9773. 8009. 304. o
2788 3 5 -2 -19 22665. 19935. 837. o
2788 2 -2 2 -26 22665. 19935. 837. o
2788 1 2 2 26 22665. 19935. 837. o
2789 2 -2 2 26 22642. 17977. 798. o
2789 1 2 2 -26 22642. 17977. 798. o
2790 2 2 3 -26 896. 176. 270. <
2790 1 -2 3 26 896. 176. 270. <
2791 2 -2 3 26 894. 414. 425. <
2791 1 2 3 -26 894. 414. 425. <
2792 2 0 3 -26 21492. 20640. 476. o
2792 1 0 3 26 21492. 20640. 476. o
2793 2 0 3 26 21494. 19686. 507. o
2793 1 0 3 -26 21494. 19686. 507. o
2794 2 -1 3 -26 19383. 17262. 380. o
2794 1 1 3 26 19383. 17262. 380. o
2795 2 -1 3 26 19382. 17210. 400. o
2795 1 1 3 -26 19382. 17210. 400. o
2796 3 5 -3 -19 955. 487. 694. <
2796 2 -2 3 -26 955. 487. 694. <
2796 1 2 3 26 955. 487. 694. <
2797 2 -2 3 26 894. -176. 746. <
2797 1 2 3 -26 894. -176. 746. <
2798 2 -3 3 -26 2751. 3782. 370. o
2798 1 3 3 26 2751. 3782. 370. o
2799 2 -3 3 26 2750. 3067. 528. o
2799 1 3 3 -26 2750. 3067. 528. o
2800 2 2 4 -26 4716. 4144. 272. o
2800 1 -2 4 26 4716. 4144. 272. o
2801 2 -2 4 26 4714. 3554. 407. o
2801 1 2 4 -26 4714. 3554. 407. o
2802 2 0 4 -26 10110. 6538. 452. o
2802 1 0 4 26 10110. 6538. 452. o
2803 2 0 4 26 10096. 6020. 443. o
2803 1 0 4 -26 10096. 6020. 443. o
2804 2 -1 4 -26 3057. 2207. 292. o
2804 1 1 4 26 3057. 2207. 292. o
2805 2 -1 4 26 3054. 2114. 313. o
2805 1 1 4 -26 3054. 2114. 313. o
2806 3 5 -4 -19 4728. 3015. 748. o
2806 2 -2 4 -26 4728. 3015. 748. o
2806 1 2 4 26 4728. 3015. 748. o
2807 2 -2 4 26 4714. 4911. 829. o
2807 1 2 4 -26 4714. 4911. 829. o
2808 2 -3 4 -26 2672. 1834. 261. o
2808 1 3 4 26 2672. 1834. 261. o
2809 2 -3 4 26 2676. 1720. 385. o
2809 1 3 4 -26 2676. 1720. 385. o
2810 2 -4 4 -26 5522. 5222. 405. o
2810 1 4 4 26 5522. 5222. 405. o
2811 2 -4 4 26 5516. 5274. 436. o
2811 1 4 4 -26 5516. 5274. 436. o
2812 2 2 5 -26 6053. 5616. 334. o
2812 1 -2 5 26 6053. 5616. 334. o
2813 2 -2 5 26 6054. 5274. 428. o
2813 1 2 5 -26 6054. 5274. 428. o
2814 2 0 5 -26 581. 342. 435. <
2814 1 0 5 26 581. 342. 435. <
2815 2 0 5 26 578. 1160. 424. o
2815 1 0 5 -26 578. 1160. 424. o
2816 2 -1 5 -26 5253. 5077. 281. o
2816 1 1 5 26 5253. 5077. 281. o
2817 2 -1 5 26 5252. 4435. 345. o
2817 1 1 5 -26 5252. 4435. 345. o
2818 3 5 -5 -19 6067. 6403. 807. o
2818 2 -2 5 -26 6067. 6403. 807. o
2818 1 2 5 26 6067. 6403. 807. o
2819 2 -2 5 26 6054. 5719. 664. o
2819 1 2 5 -26 6054. 5719. 664. o
2820 2 -3 5 -26 14548. 13211. 346. o
2820 1 3 5 26 14548. 13211. 346. o
2821 2 -3 5 26 14548. 13045. 468. o
2821 1 3 5 -26 14548. 13045. 468. o
2822 2 -4 5 -26 1907. 1368. 281. o
2822 1 4 5 26 1907. 1368. 281. o
2823 2 -4 5 26 1905. 1388. 363. o
2823 1 4 5 -26 1905. 1388. 363. o
2824 2 -5 5 -26 1266. 1326. 363. o
2824 1 5 5 26 1266. 1326. 363. o
2825 2 -5 5 26 1268. 1451. 611. o
2825 1 5 5 -26 1268. 1451. 611. o
2826 2 2 6 -26 3678. 2134. 335. o
2826 1 -2 6 26 3678. 2134. 335. o
2827 2 -2 6 26 3670. 1585. 407. o
2827 1 2 6 -26 3670. 1585. 407. o
2828 2 0 6 -26 1141. 135. 394. <
2828 1 0 6 26 1141. 135. 394. <
2829 2 0 6 26 1139. 487. 539. <
2829 1 0 6 -26 1139. 487. 539. <
2830 2 -1 6 -26 837. 528. 270. <
2830 1 1 6 26 837. 528. 270. <
2831 2 -1 6 26 837. 290. 321. <
2831 1 1 6 -26 837. 290. 321. <
2832 3 5 -6 -19 3681. 2487. 633. o
2832 2 -2 6 -26 3681. 2487. 633. o
2832 1 2 6 26 3681. 2487. 633. o
2833 2 -2 6 26 3670. 870. 862. <
2833 1 2 6 -26 3670. 870. 862. <
2834 2 -3 6 -26 4436. 3512. 314. o
2834 1 3 6 26 4436. 3512. 314. o
2835 2 -3 6 26 4434. 3647. 447. o
2835 1 3 6 -26 4434. 3647. 447. o
2836 2 -4 6 -26 2813. 2829. 311. o
2836 1 4 6 26 2813. 2829. 311. o
2837 2 -4 6 26 2813. 3844. 391. o
2837 1 4 6 -26 2813. 3844. 391. o
2838 2 -5 6 -26 47. 580. 280. o
2838 1 5 6 26 47. 580. 280. o
2839 2 -5 6 26 46. 332. 404. <
2839 1 5 6 -26 46. 332. 404. <
2840 2 -6 6 -26 4408. 5326. 432. o
2840 1 6 6 26 4408. 5326. 432. o
2841 3 2 -6 34 4411. 5067. 714. o
2841 2 -6 6 26 4411. 5067. 714. o
2841 1 6 6 -26 4411. 5067. 714. o
2842 2 6 6 26 4405. 5232. 745. o
2842 1 -6 6 -26 4405. 5232. 745. o
2843 2 2 7 -26 883. 1057. 331. o
2843 1 -2 7 26 883. 1057. 331. o
2844 2 -2 7 26 880. 953. 414. o
2844 1 2 7 -26 880. 953. 414. o
2845 2 0 7 -26 1478. 1647. 394. o
2845 1 0 7 26 1478. 1647. 394. o
2846 2 0 7 26 1480. 1233. 570. o
2846 1 0 7 -26 1480. 1233. 570. o
2847 2 -1 7 -26 4194. 4321. 300. o
2847 1 1 7 26 4194. 4321. 300. o
2848 2 -1 7 26 4194. 3492. 416. o
2848 1 1 7 -26 4194. 3492. 416. o
2849 3 5 -7 -19 890. 777. 632. <
2849 2 -2 7 -26 890. 777. 632. <
2849 1 2 7 26 890. 777. 632. <
2850 2 -2 7 26 880. 1306. 891. <
2850 1 2 7 -26 880. 1306. 891. <
2851 2 -3 7 -26 2255. 2373. 311. o
2851 1 3 7 26 2255. 2373. 311. o
2852 2 -3 7 26 2255. 2217. 415. o
2852 1 3 7 -26 2255. 2217. 415. o
2853 2 -4 7 -26 591. 1057. 290. o
2853 1 4 7 26 591. 1057. 290. o
2854 2 -4 7 26 593. 1720. 393. o
2854 1 4 7 -26 593. 1720. 393. o
2855 2 -5 7 -26 3033. 3005. 321. o
2855 1 5 7 26 3033. 3005. 321. o
2856 2 -5 7 26 3032. 2756. 415. o
2856 1 5 7 -26 3032. 2756. 415. o
2857 2 2 8 -26 636. 1078. 331. o
2857 1 -2 8 26 636. 1078. 331. o
2858 2 -2 8 26 635. 1088. 414. o
2858 1 2 8 -26 635. 1088. 414. o
2859 2 0 8 -26 1851. 819. 415. <
2859 1 0 8 26 1851. 819. 415. <
2860 2 0 8 26 1846. 1388. 694. <
2860 1 0 8 -26 1846. 1388. 694. <
2861 2 -1 8 -26 1481. 1347. 311. o
2861 1 1 8 26 1481. 1347. 311. o
2862 2 -1 8 26 1481. 1451. 414. o
2862 1 1 8 -26 1481. 1451. 414. o
2863 3 5 -8 -19 637. 207. 622. <
2863 2 -2 8 -26 637. 207. 622. <
2863 1 2 8 26 637. 207. 622. <
2864 2 -2 8 26 635. 850. 818. <
2864 1 2 8 -26 635. 850. 818. <
2865 2 -3 8 -26 38. 1129. 321. o
2865 1 3 8 26 38. 1129. 321. o
2866 2 -3 8 26 38. 1129. 414. o
2866 1 3 8 -26 38. 1129. 414. o
2867 2 -1 1 -27 1549. 622. 374. <
2867 1 1 1 27 1549. 622. 374. <
2868 2 -1 1 27 1542. 477. 353. <
2868 1 1 1 -27 1542. 477. 353. <
2869 2 -1 2 -27 11125. 10506. 306. o
2869 1 1 2 27 11125. 10506. 306. o
2870 2 -1 2 27 11122. 9646. 304. o
2870 1 1 2 -27 11122. 9646. 304. o
2871 2 -2 2 -27 251. 497. 425. <
2871 1 2 2 27 251. 497. 425. <
2872 2 -2 2 27 251. 269. 404. <
2872 1 2 2 -27 251. 269. 404. <
2873 2 3 3 -27 2673. 2404. 415. o
2873 1 -3 3 27 2673. 2404. 415. o
2874 2 -3 3 27 2680. 3005. 787. o
2874 1 3 3 -27 2680. 3005. 787. o
2875 2 -1 3 -27 2267. 1554. 291. o
2875 1 1 3 27 2267. 1554. 291. o
2876 2 -1 3 27 2266. 1761. 301. o
2876 1 1 3 -27 2266. 1761. 301. o
2877 2 -2 3 -27 2468. 1896. 260. o
2877 1 2 3 27 2468. 1896. 260. o
2878 2 -2 3 27 2467. 2311. 373. o
2878 1 2 3 -27 2467. 2311. 373. o
2879 3 6 -3 -18 2702. 3316. 590. o
2879 2 -3 3 -27 2702. 3316. 590. o
2879 1 3 3 27 2702. 3316. 590. o
2880 2 -3 3 27 2680. 1565. 736. o
2880 1 3 3 -27 2680. 1565. 736. o
2881 2 3 4 -27 2568. 3989. 275. o
2881 1 -3 4 27 2568. 3989. 275. o
2882 2 -3 4 27 2568. 3233. 413. o
2882 1 3 4 -27 2568. 3233. 413. o
2883 2 -1 4 -27 10082. 11542. 286. o
2883 1 1 4 27 10082. 11542. 286. o
2884 2 -1 4 27 10082. 10931. 356. o
2884 1 1 4 -27 10082. 10931. 356. o
2885 2 -2 4 -27 472. 715. 269. o
2885 1 2 4 27 472. 715. 269. o
2886 2 -2 4 27 472. 673. 363. <
2886 1 2 4 -27 472. 673. 363. <
2887 3 6 -4 -18 2570. 4745. 639. o
2887 2 -3 4 -27 2570. 4745. 639. o
2887 1 3 4 27 2570. 4745. 639. o
2888 2 -3 4 27 2568. 2943. 797. o
2888 1 3 4 -27 2568. 2943. 797. o
2889 2 -4 4 -27 794. -176. 363. <
2889 1 4 4 27 794. -176. 363. <
2890 2 -4 4 27 794. -218. 601. <
2890 1 4 4 -27 794. -218. 601. <
2891 2 3 5 -27 2814. 2331. 312. o
2891 1 -3 5 27 2814. 2331. 312. o
2892 2 -3 5 27 2820. 1160. 478. o
2892 1 3 5 -27 2820. 1160. 478. o
2893 2 -1 5 -27 3736. 4704. 318. o
2893 1 1 5 27 3736. 4704. 318. o
2894 2 -1 5 27 3738. 3854. 362. o
2894 1 1 5 -27 3738. 3854. 362. o
2895 2 -2 5 -27 15. 176. 269. <
2895 1 2 5 27 15. 176. 269. <
2896 2 -2 5 27 15. 145. 363. <
2896 1 2 5 -27 15. 145. 363. <
2897 3 6 -5 -18 2821. 373. 851. <
2897 2 -3 5 -27 2821. 373. 851. <
2897 1 3 5 27 2821. 373. 851. <
2898 2 -3 5 27 2820. 2487. 632. o
2898 1 3 5 -27 2820. 2487. 632. o
2899 2 -4 5 -27 175. 1440. 289. o
2899 1 4 5 27 175. 1440. 289. o
2900 2 -4 5 27 175. 404. 373. <
2900 1 4 5 -27 175. 404. 373. <
2901 2 -5 5 -27 1730. 1824. 363. o
2901 1 5 5 27 1730. 1824. 363. o
2902 3 1 -5 33 1742. 2031. 881. o
2902 2 -5 5 27 1742. 2031. 881. o
2902 1 5 5 -27 1742. 2031. 881. o
2903 2 5 5 27 1735. 2435. 849. o
2903 1 -5 5 -27 1735. 2435. 849. o
2904 2 3 6 -27 511. 1357. 310. o
2904 1 -3 6 27 511. 1357. 310. o
2905 2 -3 6 27 511. 850. 580. <
2905 1 3 6 -27 511. 850. 580. <
2906 2 -1 6 -27 2243. 3233. 298. o
2906 1 1 6 27 2243. 3233. 298. o
2907 2 -1 6 27 2243. 3761. 359. o
2907 1 1 6 -27 2243. 3761. 359. o
2908 2 -2 6 -27 46. 10. 269. <
2908 1 2 6 27 46. 10. 269. <
2909 2 -2 6 27 46. 446. 352. <
2909 1 2 6 -27 46. 446. 352. <
2910 3 6 -6 -18 525. -1585. 891. <
2910 2 -3 6 -27 525. -1585. 891. <
2910 1 3 6 27 525. -1585. 891. <
2911 2 -3 6 27 511. 1482. 818. <
2911 1 3 6 -27 511. 1482. 818. <
2912 2 -4 6 -27 249. 1140. 300. o
2912 1 4 6 27 249. 1140. 300. o
2913 2 -4 6 27 249. 673. 414. <
2913 1 4 6 -27 249. 673. 414. <
2914 2 -5 6 -27 6. 1078. 300. o
2914 1 5 6 27 6. 1078. 300. o
2915 3 1 -6 33 10. 1430. 870. <
2915 2 -5 6 27 10. 1430. 870. <
2915 1 5 6 -27 10. 1430. 870. <
2916 2 5 6 27 6. 1119. 487. o
2916 1 -5 6 -27 6. 1119. 487. o
2917 2 3 7 -27 1816. 2093. 352. o
2917 1 -3 7 27 1816. 2093. 352. o
2918 2 -3 7 27 1818. 2259. 455. o
2918 1 3 7 -27 1818. 2259. 455. o
2919 2 -1 7 -27 3302. 3088. 291. o
2919 1 1 7 27 3302. 3088. 291. o
2920 2 -1 7 27 3301. 3243. 435. o
2920 1 1 7 -27 3301. 3243. 435. o
2921 2 -2 7 -27 575. 1948. 288. o
2921 1 2 7 27 575. 1948. 288. o
2922 2 -2 7 27 575. 2466. 360. o
2922 1 2 7 -27 575. 2466. 360. o
2923 3 6 -7 -18 1821. 1720. 705. o
2923 2 -3 7 -27 1821. 1720. 705. o
2923 1 3 7 27 1821. 1720. 705. o
2924 2 -3 7 27 1818. 2725. 735. o
2924 1 3 7 -27 1818. 2725. 735. o
2925 2 -4 7 -27 619. 2321. 319. o
2925 1 4 7 27 619. 2321. 319. o
2926 2 -4 7 27 619. 1306. 424. o
2926 1 4 7 -27 619. 1306. 424. o
2927 2 -1 8 -27 59. 736. 311. o
2927 1 1 8 27 59. 736. 311. o
2928 2 -1 8 27 59. 166. 446. <
2928 1 1 8 -27 59. 166. 446. <
2929 2 -2 8 -27 82. 725. 300. o
2929 1 2 8 27 82. 725. 300. o
2930 2 -2 8 27 82. 1150. 393. o
2930 1 2 8 -27 82. 1150. 393. o
2931 2 0 0 -28 45336. 59525. 965. o
2931 1 0 0 28 45336. 59525. 965. o
2932 2 0 0 28 45331. 58769. 979. o
2932 1 0 0 -28 45331. 58769. 979. o
2933 2 0 1 -28 65. 363. 383. <
2933 1 0 1 28 65. 363. 383. <
2934 2 0 1 28 65. 311. 373. <
2934 1 0 1 -28 65. 311. 373. <
2935 2 -1 1 -28 1134. 2155. 413. o
2935 1 1 1 28 1134. 2155. 413. o
2936 2 -1 1 28 1133. 1865. 393. o
2936 1 1 1 -28 1133. 1865. 393. o
2937 2 0 2 -28 11003. 9677. 413. o
2937 1 0 2 28 11003. 9677. 413. o
2938 2 0 2 28 11016. 8962. 407. o
2938 1 0 2 -28 11016. 8962. 407. o
2939 2 -1 2 -28 571. 1357. 279. o
2939 1 1 2 28 571. 1357. 279. o
2940 2 -1 2 28 570. 1005. 269. o
2940 1 1 2 -28 570. 1005. 269. o
2941 2 -2 2 -28 9447. 12133. 470. o
2941 1 2 2 28 9447. 12133. 470. o
2942 2 -2 2 28 9439. 11750. 547. o
2942 1 2 2 -28 9439. 11750. 547. o
2943 2 0 3 -28 2263. 2694. 393. o
2943 1 0 3 28 2263. 2694. 393. o
2944 2 0 3 28 2262. 2145. 415. o
2944 1 0 3 -28 2262. 2145. 415. o
2945 2 -1 3 -28 4693. 4942. 299. o
2945 1 1 3 28 4693. 4942. 299. o
2946 2 -1 3 28 4695. 4953. 299. o
2946 1 1 3 -28 4695. 4953. 299. o
2947 2 -2 3 -28 163. 83. 249. <
2947 1 2 3 28 163. 83. 249. <
2948 2 -2 3 28 162. -311. 373. <
2948 1 2 3 -28 162. -311. 373. <
2949 2 -3 3 -28 1637. 228. 353. <
2949 1 3 3 28 1637. 228. 353. <
2950 2 -3 3 28 1636. 974. 467. o
2950 1 3 3 -28 1636. 974. 467. o
2951 3 0 -4 -32 734. 321. 435. <
2951 2 4 4 -28 734. 321. 435. <
2951 1 -4 4 28 734. 321. 435. <
2952 3 0 -4 32 727. 249. 684. <
2952 2 -4 4 28 727. 249. 684. <
2952 1 4 4 -28 727. 249. 684. <
2953 2 0 4 -28 2019. 663. 405. <
2953 1 0 4 28 2019. 663. 405. <
2954 2 0 4 28 2009. 580. 405. <
2954 1 0 4 -28 2009. 580. 405. <
2955 2 -1 4 -28 134. 342. 280. <
2955 1 1 4 28 134. 342. 280. <
2956 2 -1 4 28 135. 145. 321. <
2956 1 1 4 -28 135. 145. 321. <
2957 2 -2 4 -28 1446. 736. 270. o
2957 1 2 4 28 1446. 736. 270. o
2958 2 -2 4 28 1454. 580. 363. <
2958 1 2 4 -28 1454. 580. 363. <
2959 2 -3 4 -28 357. 622. 269. o
2959 1 3 4 28 357. 622. 269. o
2960 2 -3 4 28 355. 705. 362. <
2960 1 3 4 -28 355. 705. 362. <
2961 3 7 -4 -17 708. -166. 787. <
2961 2 -4 4 -28 708. -166. 787. <
2961 1 4 4 28 708. -166. 787. <
2962 3 -7 -4 17 701. -435. 663. <
2962 2 4 4 28 701. -435. 663. <
2962 1 -4 4 -28 701. -435. 663. <
2963 2 -5 4 -28 27. 539. 404. <
2963 1 5 4 28 27. 539. 404. <
2964 2 -5 4 28 27. 1088. 652. <
2964 1 5 4 -28 27. 1088. 652. <
2965 2 -6 4 -28 846. 746. 404. <
2965 1 6 4 28 846. 746. 404. <
2966 2 -6 4 28 849. 870. 477. <
2966 1 6 4 -28 849. 870. 477. <
2967 2 -7 4 -28 316. 114. 394. <
2967 1 7 4 28 316. 114. 394. <
2968 2 -7 4 28 315. 1440. 590. o
2968 1 7 4 -28 315. 1440. 590. o
2969 3 0 -5 -32 71. 290. 477. <
2969 2 4 5 -28 71. 290. 477. <
2969 1 -4 5 28 71. 290. 477. <
2970 3 0 -5 32 71. 394. 580. <
2970 2 -4 5 28 71. 394. 580. <
2970 1 4 5 -28 71. 394. 580. <
2971 2 0 5 -28 661. 166. 508. <
2971 1 0 5 28 661. 166. 508. <
2972 2 0 5 28 662. 342. 446. <
2972 1 0 5 -28 662. 342. 446. <
2973 2 -1 5 -28 199. 539. 290. <
2973 1 1 5 28 199. 539. 290. <
2974 2 -1 5 28 198. 1378. 351. o
2974 1 1 5 -28 198. 1378. 351. o
2975 2 -2 5 -28 1258. 1554. 279. o
2975 1 2 5 28 1258. 1554. 279. o
2976 2 -2 5 28 1257. 1668. 362. o
2976 1 2 5 -28 1257. 1668. 362. o
2977 2 -3 5 -28 5403. 5927. 298. o
2977 1 3 5 28 5403. 5927. 298. o
2978 2 -3 5 28 5403. 5958. 371. o
2978 1 3 5 -28 5403. 5958. 371. o
2979 3 7 -5 -17 31. 560. 808. <
2979 2 -4 5 -28 31. 560. 808. <
2979 1 4 5 28 31. 560. 808. <
2980 3 -7 -5 17 30. -93. 860. <
2980 2 4 5 28 30. -93. 860. <
2980 1 -4 5 -28 30. -93. 860. <
2981 2 -5 5 -28 392. 736. 373. <
2981 1 5 5 28 392. 736. 373. <
2982 2 -5 5 28 392. 1430. 569. o
2982 1 5 5 -28 392. 1430. 569. o
2983 3 0 -6 -32 898. 1036. 497. o
2983 2 4 6 -28 898. 1036. 497. o
2983 1 -4 6 28 898. 1036. 497. o
2984 3 0 -6 32 900. 787. 601. <
2984 2 -4 6 28 900. 787. 601. <
2984 1 4 6 -28 900. 787. 601. <
2985 2 0 6 -28 3280. 7833. 503. o
2985 1 0 6 28 3280. 7833. 503. o
2986 2 0 6 28 3283. 6849. 655. o
2986 1 0 6 -28 3283. 6849. 655. o
2987 2 -1 6 -28 102. 342. 290. <
2987 1 1 6 28 102. 342. 290. <
2988 2 -1 6 28 102. 705. 342. o
2988 1 1 6 -28 102. 705. 342. o
2989 2 -2 6 -28 1366. 1264. 280. o
2989 1 2 6 28 1366. 1264. 280. o
2990 2 -2 6 28 1362. 1451. 363. o
2990 1 2 6 -28 1362. 1451. 363. o
2991 2 -3 6 -28 387. 622. 300. o
2991 1 3 6 28 387. 622. 300. o
2992 2 -3 6 28 387. 912. 383. o
2992 1 3 6 -28 387. 912. 383. o
2993 3 7 -6 -17 848. 1295. 653. <
2993 2 -4 6 -28 848. 1295. 653. <
2993 1 4 6 28 848. 1295. 653. <
2994 3 -7 -6 17 850. 62. 839. <
2994 2 4 6 28 850. 62. 839. <
2994 1 -4 6 -28 850. 62. 839. <
2995 2 -5 6 -28 157. 860. 310. o
2995 1 5 6 28 157. 860. 310. o
2996 2 -5 6 28 157. 332. 404. <
2996 1 5 6 -28 157. 332. 404. <
2997 3 0 -7 -32 318. 787. 590. <
2997 2 4 7 -28 318. 787. 590. <
2997 1 -4 7 28 318. 787. 590. <
2998 3 0 -7 32 316. 1109. 704. <
2998 2 -4 7 28 316. 1109. 704. <
2998 1 4 7 -28 316. 1109. 704. <
2999 2 0 7 -28 550. 787. 425. <
2999 1 0 7 28 550. 787. 425. <
3000 2 0 7 28 549. 2114. 714. o
3000 1 0 7 -28 549. 2114. 714. o
3001 2 -1 7 -28 596. 1554. 310. o
3001 1 1 7 28 596. 1554. 310. o
3002 2 -1 7 28 597. 1637. 424. o
3002 1 1 7 -28 597. 1637. 424. o
3003 2 -2 7 -28 223. 632. 290. o
3003 1 2 7 28 223. 632. 290. o
3004 2 -2 7 28 222. 580. 383. <
3004 1 2 7 -28 222. 580. 383. <
3005 2 -3 7 -28 97. 850. 300. o
3005 1 3 7 28 97. 850. 300. o
3006 2 -3 7 28 96. 1192. 435. o
3006 1 3 7 -28 96. 1192. 435. o
3007 3 7 -7 -17 317. 1160. 663. <
3007 2 -4 7 -28 317. 1160. 663. <
3007 1 4 7 28 317. 1160. 663. <
3008 3 -7 -7 17 315. -62. 736. <
3008 2 4 7 28 315. -62. 736. <
3008 1 -4 7 -28 315. -62. 736. <
3009 2 0 8 -28 1475. 3005. 443. o
3009 1 0 8 28 1475. 3005. 443. o
3010 2 0 8 28 1474. 3357. 619. o
3010 1 0 8 -28 1474. 3357. 619. o
3011 2 -1 8 -28 73. 622. 311. <
3011 1 1 8 28 73. 622. 311. <
3012 2 -1 8 28 73. 1160. 424. o
3012 1 1 8 -28 73. 1160. 424. o
3013 2 -2 8 -28 1542. 3253. 349. o
3013 1 2 8 28 1542. 3253. 349. o
3014 2 -2 8 28 1543. 3357. 422. o
3014 1 2 8 -28 1543. 3357. 422. o
3015 2 -1 1 -29 29267. 28462. 489. o
3015 1 1 1 29 29267. 28462. 489. o
3016 2 -1 1 29 29265. 26566. 516. o
3016 1 1 1 -29 29265. 26566. 516. o
3017 2 -1 2 -29 3106. 3409. 300. o
3017 1 1 2 29 3106. 3409. 300. o
3018 2 -1 2 29 3104. 3305. 290. o
3018 1 1 2 -29 3104. 3305. 290. o
3019 2 -2 2 -29 1105. 777. 415. <
3019 1 2 2 29 1105. 777. 415. <
3020 2 -2 2 29 1106. 591. 498. <
3020 1 2 2 -29 1106. 591. 498. <
3021 2 -1 3 -29 12631. 13117. 316. o
3021 1 1 3 29 12631. 13117. 316. o
3022 2 -1 3 29 12638. 12869. 360. o
3022 1 1 3 -29 12638. 12869. 360. o
3023 2 -2 3 -29 472. 560. 259. o
3023 1 2 3 29 472. 560. 259. o
3024 2 -2 3 29 472. 756. 352. o
3024 1 2 3 -29 472. 756. 352. o
3025 2 -3 3 -29 6352. 5813. 406. o
3025 1 3 3 29 6352. 5813. 406. o
3026 3 -1 -3 31 6398. 7522. 909. o
3026 2 -3 3 29 6398. 7522. 909. o
3026 1 3 3 -29 6398. 7522. 909. o
3027 2 3 3 29 6362. 6559. 943. o
3027 1 -3 3 -29 6362. 6559. 943. o
3028 2 -1 4 -29 2182. 3036. 298. o
3028 1 1 4 29 2182. 3036. 298. o
3029 2 -1 4 29 2184. 3067. 340. o
3029 1 1 4 -29 2184. 3067. 340. o
3030 2 -2 4 -29 809. 404. 280. <
3030 1 2 4 29 809. 404. 280. <
3031 2 -2 4 29 810. 528. 383. <
3031 1 2 4 -29 810. 528. 383. <
3032 2 -3 4 -29 142. 725. 269. o
3032 1 3 4 29 142. 725. 269. o
3033 3 -1 -4 31 146. 238. 570. <
3033 2 -3 4 29 146. 238. 570. <
3033 1 3 4 -29 146. 238. 570. <
3034 2 3 4 29 142. 777. 476. <
3034 1 -3 4 -29 142. 777. 476. <
3035 2 -4 4 -29 1455. 1036. 394. o
3035 1 4 4 29 1455. 1036. 394. o
3036 2 -4 4 29 1454. 1243. 560. o
3036 1 4 4 -29 1454. 1243. 560. o
3037 2 5 5 -29 1159. 2031. 497. o
3037 1 -5 5 29 1159. 2031. 497. o
3038 2 -5 5 29 1162. 1046. 798. <
3038 1 5 5 -29 1162. 1046. 798. <
3039 2 -1 5 -29 2029. 1886. 311. o
3039 1 1 5 29 2029. 1886. 311. o
3040 2 -1 5 29 2030. 1419. 394. o
3040 1 1 5 -29 2030. 1419. 394. o
3041 2 -2 5 -29 296. 694. 290. o
3041 1 2 5 29 296. 694. 290. o
3042 2 -2 5 29 297. 736. 373. <
3042 1 2 5 -29 297. 736. 373. <
3043 2 -3 5 -29 1773. 1886. 300. o
3043 1 3 5 29 1773. 1886. 300. o
3044 3 -1 -5 31 1846. 1285. 798. <
3044 2 -3 5 29 1846. 1285. 798. <
3044 1 3 5 -29 1846. 1285. 798. <
3045 2 3 5 29 1778. 1875. 425. o
3045 1 -3 5 -29 1778. 1875. 425. o
3046 2 -4 5 -29 541. 1181. 290. o
3046 1 4 5 29 541. 1181. 290. o
3047 2 -4 5 29 541. 1078. 383. o
3047 1 4 5 -29 541. 1078. 383. o
3048 3 8 -5 -16 1190. 684. 881. <
3048 2 -5 5 -29 1190. 684. 881. <
3048 1 5 5 29 1190. 684. 881. <
3049 2 -5 5 29 1162. 1554. 684. o
3049 1 5 5 -29 1162. 1554. 684. o
3050 2 5 6 -29 313. 891. 321. o
3050 1 -5 6 29 313. 891. 321. o
3051 2 -5 6 29 313. 1067. 518. o
3051 1 5 6 -29 313. 1067. 518. o
3052 2 -1 6 -29 204. 881. 300. o
3052 1 1 6 29 204. 881. 300. o
3053 2 -1 6 29 204. 1140. 352. o
3053 1 1 6 -29 204. 1140. 352. o
3054 2 -2 6 -29 367. 311. 311. <
3054 1 2 6 29 367. 311. 311. <
3055 2 -2 6 29 367. 736. 362. o
3055 1 2 6 -29 367. 736. 362. o
3056 2 -3 6 -29 33. 145. 311. <
3056 1 3 6 29 33. 145. 311. <
3057 3 -1 -6 31 36. 560. 642. <
3057 2 -3 6 29 36. 560. 642. <
3057 1 3 6 -29 36. 560. 642. <
3058 2 3 6 29 33. 964. 497. <
3058 1 -3 6 -29 33. 964. 497. <
3059 2 -4 6 -29 143. 933. 290. o
3059 1 4 6 29 143. 933. 290. o
3060 2 -4 6 29 142. 984. 424. o
3060 1 4 6 -29 142. 984. 424. o
3061 3 8 -6 -16 318. 777. 912. <
3061 2 -5 6 -29 318. 777. 912. <
3061 1 5 6 29 318. 777. 912. <
3062 2 -5 6 29 313. 2103. 849. o
3062 1 5 6 -29 313. 2103. 849. o
3063 2 -1 7 -29 311. 300. 300. <
3063 1 1 7 29 311. 300. 300. <
3064 2 -1 7 29 310. 684. 404. <
3064 1 1 7 -29 310. 684. 404. <
3065 2 -2 7 -29 577. 1979. 309. o
3065 1 2 7 29 577. 1979. 309. o
3066 2 -2 7 29 577. 2176. 382. o
3066 1 2 7 -29 577. 2176. 382. o
3067 2 -3 7 -29 362. 694. 290. o
3067 1 3 7 29 362. 694. 290. o
3068 2 3 7 29 363. 570. 1554. <
3068 1 -3 7 -29 363. 570. 1554. <
3069 3 -1 -7 31 410. -124. 829. <
3069 2 -3 7 29 410. -124. 829. <
3069 1 3 7 -29 410. -124. 829. <
3070 2 3 7 29 363. 1471. 569. o
3070 1 -3 7 -29 363. 1471. 569. o
3071 2 0 0 -30 6281. 4569. 842. o
3071 1 0 0 30 6281. 4569. 842. o
3072 2 0 0 30 6276. 4942. 790. o
3072 1 0 0 -30 6276. 4942. 790. o
3073 2 0 1 -30 792. 1026. 342. o
3073 1 0 1 30 792. 1026. 342. o
3074 2 0 1 30 790. 974. 373. o
3074 1 0 1 -30 790. 974. 373. o
3075 2 -1 1 -30 17657. 19137. 482. o
3075 1 1 1 30 17657. 19137. 482. o
3076 2 -1 1 30 17659. 18174. 461. o
3076 1 1 1 -30 17659. 18174. 461. o
3077 2 0 2 -30 8784. 6393. 446. o
3077 1 0 2 30 8784. 6393. 446. o
3078 2 0 2 30 8771. 6631. 424. o
3078 1 0 2 -30 8771. 6631. 424. o
3079 2 -1 2 -30 2155. 601. 281. o
3079 1 1 2 30 2155. 601. 281. o
3080 2 -1 2 30 2157. 756. 261. o
3080 1 1 2 -30 2157. 756. 261. o
3081 2 -2 2 -30 10428. 9512. 471. o
3081 1 2 2 30 10428. 9512. 471. o
3082 2 2 2 30 10416. 8113. 825. o
3082 1 -2 2 -30 10416. 8113. 825. o
3083 3 -2 -2 30 10473. 8900. 649. o
3083 2 -2 2 30 10473. 8900. 649. o
3083 1 2 2 -30 10473. 8900. 649. o
3084 2 2 2 30 10416. 9563. 1142. o
3084 1 -2 2 -30 10416. 9563. 1142. o
3085 2 0 3 -30 6948. 4445. 392. o
3085 1 0 3 30 6948. 4445. 392. o
3086 2 0 3 30 6952. 4279. 474. o
3086 1 0 3 -30 6952. 4279. 474. o
3087 2 -1 3 -30 8945. 10050. 312. o
3087 1 1 3 30 8945. 10050. 312. o
3088 2 -1 3 30 8943. 9387. 360. o
3088 1 1 3 -30 8943. 9387. 360. o
3089 2 -2 3 -30 571. 1357. 269. o
3089 1 2 3 30 571. 1357. 269. o
3090 2 2 3 30 569. 2456. 797. o
3090 1 -2 3 -30 569. 2456. 797. o
3091 3 -2 -3 30 572. 1741. 859. o
3091 2 -2 3 30 572. 1741. 859. o
3091 1 2 3 -30 572. 1741. 859. o
3092 2 2 3 30 569. 881. 487. <
3092 1 -2 3 -30 569. 881. 487. <
3093 2 -3 3 -30 17453. 16132. 499. o
3093 1 3 3 30 17453. 16132. 499. o
3094 2 -3 3 30 17454. 15065. 597. o
3094 1 3 3 -30 17454. 15065. 597. o
3095 2 0 4 -30 12037. 15013. 442. o
3095 1 0 4 30 12037. 15013. 442. o
3096 2 0 4 30 12028. 14019. 515. o
3096 1 0 4 -30 12028. 14019. 515. o
3097 2 -1 4 -30 625. 321. 301. <
3097 1 1 4 30 625. 321. 301. <
3098 2 -1 4 30 624. 394. 321. <
3098 1 1 4 -30 624. 394. 321. <
3099 2 -2 4 -30 10073. 9470. 306. o
3099 1 2 4 30 10073. 9470. 306. o
3100 2 2 4 30 10059. 8724. 761. o
3100 1 -2 4 -30 10059. 8724. 761. o
3101 3 -2 -4 30 10113. 11698. 917. o
3101 2 -2 4 30 10113. 11698. 917. o
3101 1 2 4 -30 10113. 11698. 917. o
3102 2 2 4 30 10059. 8724. 596. o
3102 1 -2 4 -30 10059. 8724. 596. o
3103 2 -3 4 -30 796. 446. 259. <
3103 1 3 4 30 796. 446. 259. <
3104 2 -3 4 30 799. 446. 415. <
3104 1 3 4 -30 799. 446. 415. <
3105 2 -4 4 -30 8246. 7895. 468. o
3105 1 4 4 30 8246. 7895. 468. o
3106 2 -4 4 30 8238. 7657. 655. o
3106 1 4 4 -30 8238. 7657. 655. o
3107 2 0 5 -30 617. 2435. 475. o
3107 1 0 5 30 617. 2435. 475. o
3108 2 0 5 30 619. 1948. 424. o
3108 1 0 5 -30 619. 1948. 424. o
3109 2 -1 5 -30 9663. 9916. 340. o
3109 1 1 5 30 9663. 9916. 340. o
3110 2 -1 5 30 9666. 9563. 436. o
3110 1 1 5 -30 9666. 9563. 436. o
3111 2 -2 5 -30 1219. 974. 301. o
3111 1 2 5 30 1219. 974. 301. o
3112 2 2 5 30 1220. 767. 705. <
3112 1 -2 5 -30 1220. 767. 705. <
3113 3 -2 -5 30 1227. 1129. 736. <
3113 2 -2 5 30 1227. 1129. 736. <
3113 1 2 5 -30 1227. 1129. 736. <
3114 2 2 5 30 1220. 1274. 591. o
3114 1 -2 5 -30 1220. 1274. 591. o
3115 2 -3 5 -30 2616. 3834. 307. o
3115 1 3 5 30 2616. 3834. 307. o
3116 2 -3 5 30 2616. 2912. 404. o
3116 1 3 5 -30 2616. 2912. 404. o
3117 2 -4 5 -30 718. 974. 300. o
3117 1 4 5 30 718. 974. 300. o
3118 2 -4 5 30 717. 912. 404. o
3118 1 4 5 -30 717. 912. 404. o
3119 2 -5 5 -30 6801. 7346. 454. o
3119 1 5 5 30 6801. 7346. 454. o
3120 2 -5 5 30 6796. 6621. 705. o
3120 1 5 5 -30 6796. 6621. 705. o
3121 2 0 6 -30 7896. 9781. 499. o
3121 1 0 6 30 7896. 9781. 499. o
3122 2 0 6 30 7892. 9491. 730. o
3122 1 0 6 -30 7892. 9491. 730. o
3123 2 -1 6 -30 422. 808. 300. o
3123 1 1 6 30 422. 808. 300. o
3124 2 -1 6 30 422. 497. 394. <
3124 1 1 6 -30 422. 497. 394. <
3125 2 -2 6 -30 7099. 10226. 308. o
3125 1 2 6 30 7099. 10226. 308. o
3126 2 2 6 30 7095. 9646. 717. o
3126 1 -2 6 -30 7095. 9646. 717. o
3127 3 -2 -6 30 7134. 11242. 868. o
3127 2 -2 6 30 7134. 11242. 868. o
3127 1 2 6 -30 7134. 11242. 868. o
3128 2 2 6 30 7095. 8579. 575. o
3128 1 -2 6 -30 7095. 8579. 575. o
3129 2 -3 6 -30 1503. 1596. 311. o
3129 1 3 6 30 1503. 1596. 311. o
3130 2 -3 6 30 1502. 2062. 455. o
3130 1 3 6 -30 1502. 2062. 455. o
3131 2 -4 6 -30 3136. 2269. 313. o
3131 1 4 6 30 3136. 2269. 313. o
3132 2 -4 6 30 3135. 2777. 415. o
3132 1 4 6 -30 3135. 2777. 415. o
3133 2 -5 6 -30 662. 1306. 321. o
3133 1 5 6 30 662. 1306. 321. o
3134 2 -5 6 30 662. 1461. 424. o
3134 1 5 6 -30 662. 1461. 424. o
3135 2 0 7 -30 317. 1388. 455. o
3135 1 0 7 30 317. 1388. 455. o
3136 2 0 7 30 318. 1782. 673. o
3136 1 0 7 -30 318. 1782. 673. o
3137 2 -1 7 -30 3435. 3564. 342. o
3137 1 1 7 30 3435. 3564. 342. o
3138 2 -1 7 30 3432. 3751. 445. o
3138 1 1 7 -30 3432. 3751. 445. o
3139 2 -2 7 -30 563. 622. 311. <
3139 1 2 7 30 563. 622. 311. <
3140 2 2 7 30 562. 1906. 942. o
3140 1 -2 7 -30 562. 1906. 942. o
3141 3 -2 -7 30 565. 601. 622. <
3141 2 -2 7 30 565. 601. 622. <
3141 1 2 7 -30 565. 601. 622. <
3142 2 2 7 30 562. 1274. 518. o
3142 1 -2 7 -30 562. 1274. 518. o
3143 2 -3 7 -30 3697. 3948. 310. o
3143 1 3 7 30 3697. 3948. 310. o
3144 2 -3 7 30 3700. 4217. 455. o
3144 1 3 7 -30 3700. 4217. 455. o
3145 2 -1 1 -31 1605. 1492. 373. o
3145 1 1 1 31 1605. 1492. 373. o
3146 2 1 1 31 1609. 1482. 767. <
3146 1 -1 1 -31 1609. 1482. 767. <
3147 3 -3 -1 29 1679. 1772. 756. o
3147 2 -1 1 31 1679. 1772. 756. o
3147 1 1 1 -31 1679. 1772. 756. o
3148 2 1 1 31 1609. 1378. 891. <
3148 1 -1 1 -31 1609. 1378. 891. <
3149 3 -3 -1 29 1679. 1647. 850. <
3149 2 -1 1 31 1679. 1647. 850. <
3149 1 1 1 -31 1679. 1647. 850. <
3150 2 -1 2 -31 724. 694. 269. o
3150 1 1 2 31 724. 694. 269. o
3151 2 1 2 31 723. 870. 549. <
3151 1 -1 2 -31 723. 870. 549. <
3152 3 -3 -2 29 726. 10. 549. <
3152 2 -1 2 31 726. 10. 549. <
3152 1 1 2 -31 726. 10. 549. <
3153 2 1 2 31 723. 456. 394. <
3153 1 -1 2 -31 723. 456. 394. <
3154 3 -3 -2 29 726. 653. 829. <
3154 2 -1 2 31 726. 653. 829. <
3154 1 1 2 -31 726. 653. 829. <
3155 2 -2 2 -31 2287. 1326. 405. o
3155 1 2 2 31 2287. 1326. 405. o
3156 2 -2 2 31 2289. 1192. 509. o
3156 1 2 2 -31 2289. 1192. 509. o
3157 2 -1 3 -31 6716. 6434. 302. o
3157 1 1 3 31 6716. 6434. 302. o
3158 2 1 3 31 6717. 6010. 479. o
3158 1 -1 3 -31 6717. 6010. 479. o
3159 3 -3 -3 29 6752. 5626. 645. o
3159 2 -1 3 31 6752. 5626. 645. o
3159 1 1 3 -31 6752. 5626. 645. o
3160 2 1 3 31 6717. 5429. 532. o
3160 1 -1 3 -31 6717. 5429. 532. o
3161 2 -2 3 -31 503. 684. 280. o
3161 1 2 3 31 503. 684. 280. o
3162 2 -2 3 31 502. 528. 404. <
3162 1 2 3 -31 502. 528. 404. <
3163 2 -3 3 -31 8293. 8527. 444. o
3163 1 3 3 31 8293. 8527. 444. o
3164 2 -3 3 31 8291. 8848. 682. o
3164 1 3 3 -31 8291. 8848. 682. o
3165 2 -1 4 -31 707. 1223. 290. o
3165 1 1 4 31 707. 1223. 290. o
3166 2 1 4 31 707. 912. 601. <
3166 1 -1 4 -31 707. 912. 601. <
3167 3 -3 -4 29 708. 1140. 611. <
3167 2 -1 4 31 708. 1140. 611. <
3167 1 1 4 -31 708. 1140. 611. <
3168 2 1 4 31 707. 1440. 476. o
3168 1 -1 4 -31 707. 1440. 476. o
3169 2 -2 4 -31 3012. 2290. 302. o
3169 1 2 4 31 3012. 2290. 302. o
3170 2 -2 4 31 3013. 2632. 394. o
3170 1 2 4 -31 3013. 2632. 394. o
3171 2 -3 4 -31 428. 1150. 310. o
3171 1 3 4 31 428. 1150. 310. o
3172 2 -3 4 31 428. 1761. 393. o
3172 1 3 4 -31 428. 1761. 393. o
3173 2 -4 4 -31 2145. 2435. 424. o
3173 1 4 4 31 2145. 2435. 424. o
3174 2 -4 4 31 2144. 2217. 570. o
3174 1 4 4 -31 2144. 2217. 570. o
3175 2 -1 5 -31 12621. 16764. 336. o
3175 1 1 5 31 12621. 16764. 336. o
3176 2 1 5 31 12622. 16889. 1008. o
3176 1 -1 5 -31 12622. 16889. 1008. o
3177 3 -3 -5 29 12632. 17086. 699. o
3177 2 -1 5 31 12632. 17086. 699. o
3177 1 1 5 -31 12632. 17086. 699. o
3178 2 1 5 31 12622. 14392. 590. o
3178 1 -1 5 -31 12622. 14392. 590. o
3179 2 -2 5 -31 405. 808. 311. o
3179 1 2 5 31 405. 808. 311. o
3180 2 -2 5 31 405. 383. 383. <
3180 1 2 5 -31 405. 383. 383. <
3181 2 -3 5 -31 7809. 7750. 322. o
3181 1 3 5 31 7809. 7750. 322. o
3182 2 -3 5 31 7808. 7698. 456. o
3182 1 3 5 -31 7808. 7698. 456. o
3183 2 -4 5 -31 248. 933. 321. o
3183 1 4 5 31 248. 933. 321. o
3184 2 -4 5 31 248. 1347. 455. o
3184 1 4 5 -31 248. 1347. 455. o
3185 2 -5 5 -31 3674. 3419. 394. o
3185 1 5 5 31 3674. 3419. 394. o
3186 2 -5 5 31 3674. 3160. 488. o
3186 1 5 5 -31 3674. 3160. 488. o
3187 2 -1 6 -31 395. 839. 321. o
3187 1 1 6 31 395. 839. 321. o
3188 2 1 6 31 395. 839. 642. <
3188 1 -1 6 -31 395. 839. 642. <
3189 3 -3 -6 29 395. -52. 673. <
3189 2 -1 6 31 395. -52. 673. <
3189 1 1 6 -31 395. -52. 673. <
3190 2 1 6 31 395. 622. 559. <
3190 1 -1 6 -31 395. 622. 559. <
3191 2 -2 6 -31 445. 839. 311. o
3191 1 2 6 31 445. 839. 311. o
3192 2 -2 6 31 445. 1109. 414. o
3192 1 2 6 -31 445. 1109. 414. o
3193 2 -3 6 -31 305. 1337. 331. o
3193 1 3 6 31 305. 1337. 331. o
3194 2 -3 6 31 304. 383. 425. <
3194 1 3 6 -31 304. 383. 425. <
3195 2 -4 6 -31 934. 1616. 331. o
3195 1 4 6 31 934. 1616. 331. o
3196 2 -4 6 31 934. 1886. 445. o
3196 1 4 6 -31 934. 1886. 445. o
3197 2 -1 7 -31 8778. 12610. 374. o
3197 1 1 7 31 8778. 12610. 374. o
3198 2 1 7 31 8779. 14900. 878. o
3198 1 -1 7 -31 8779. 14900. 878. o
3199 3 -3 -7 29 8782. 13397. 896. o
3199 2 -1 7 31 8782. 13397. 896. o
3199 1 1 7 -31 8782. 13397. 896. o
3200 2 1 7 31 8779. 11801. 650. o
3200 1 -1 7 -31 8779. 11801. 650. o
3201 2 -2 7 -31 224. 684. 311. o
3201 1 2 7 31 224. 684. 311. o
3202 2 -2 7 31 224. 383. 414. <
3202 1 2 7 -31 224. 383. 414. <
3203 3 4 0 -28 4751. 1782. 863. o
3203 2 0 0 -32 4751. 1782. 863. o
3203 1 0 0 32 4751. 1782. 863. o
3204 3 -4 0 28 4751. 3067. 769. o
3204 2 0 0 32 4751. 3067. 769. o
3204 1 0 0 -32 4751. 3067. 769. o
3205 2 -1 0 -32 4884. 5440. 579. o
3205 1 1 0 32 4884. 5440. 579. o
3206 2 -1 0 32 4885. 4994. 570. o
3206 1 1 0 -32 4885. 4994. 570. o
3207 2 -2 0 -32 18162. 19894. 639. o
3207 1 2 0 32 18162. 19894. 639. o
3208 2 -2 0 32 18182. 18091. 674. o
3208 1 2 0 -32 18182. 18091. 674. o
3209 2 -3 0 -32 7122. 6517. 613. o
3209 1 3 0 32 7122. 6517. 613. o
3210 2 -3 0 32 7125. 6196. 593. o
3210 1 3 0 -32 7125. 6196. 593. o
3211 2 -4 0 -32 6386. 4663. 554. o
3211 1 4 0 32 6386. 4663. 554. o
3212 2 -4 0 32 6388. 5170. 583. o
3212 1 4 0 -32 6388. 5170. 583. o
3213 2 -5 0 -32 8137. 9211. 680. o
3213 1 5 0 32 8137. 9211. 680. o
3214 2 -5 0 32 8140. 8641. 693. o
3214 1 5 0 -32 8140. 8641. 693. o
3215 2 -6 0 -32 9472. 9045. 727. o
3215 1 6 0 32 9472. 9045. 727. o
3216 2 -6 0 32 9476. 7989. 1153. o
3216 1 6 0 -32 9476. 7989. 1153. o
3217 2 -7 0 -32 262. 1274. 518. o
3217 1 7 0 32 262. 1274. 518. o
3218 2 -7 0 32 263. 155. 1119. <
3218 1 7 0 -32 263. 155. 1119. <
3219 3 4 -1 -28 4885. 5160. 590. o
3219 2 0 1 -32 4885. 5160. 590. o
3219 1 0 1 32 4885. 5160. 590. o
3220 3 -4 -1 28 4886. 4611. 612. o
3220 2 0 1 32 4886. 4611. 612. o
3220 1 0 1 -32 4886. 4611. 612. o
3221 2 -1 1 -32 2490. 1357. 416. o
3221 1 1 1 32 2490. 1357. 416. o
3222 2 -1 1 32 2489. 1585. 395. o
3222 1 1 1 -32 2489. 1585. 395. o
3223 3 4 -2 -28 18170. 18194. 694. o
3223 2 0 2 -32 18170. 18194. 694. o
3223 1 0 2 32 18170. 18194. 694. o
3224 3 -4 -2 28 18191. 18806. 721. o
3224 2 0 2 32 18191. 18806. 721. o
3224 1 0 2 -32 18191. 18806. 721. o
3225 2 -1 2 -32 684. 93. 290. <
3225 1 1 2 32 684. 93. 290. <
3226 2 -1 2 32 683. 249. 280. <
3226 1 1 2 -32 683. 249. 280. <
3227 2 -2 2 -32 5921. 4082. 430. o
3227 1 2 2 32 5921. 4082. 430. o
3228 2 -2 2 32 5925. 4217. 502. o
3228 1 2 2 -32 5925. 4217. 502. o
3229 3 4 -3 -28 7124. 6973. 570. o
3229 2 0 3 -32 7124. 6973. 570. o
3229 1 0 3 32 7124. 6973. 570. o
3230 3 -4 -3 28 7127. 8548. 960. o
3230 2 0 3 32 7127. 8548. 960. o
3230 1 0 3 -32 7127. 8548. 960. o
3231 2 -1 3 -32 799. 756. 269. o
3231 1 1 3 32 799. 756. 269. o
3232 2 -1 3 32 800. 611. 342. <
3232 1 1 3 -32 800. 611. 342. <
3233 2 -2 3 -32 7207. 7584. 308. o
3233 1 2 3 32 7207. 7584. 308. o
3234 2 -2 3 32 7210. 7346. 383. o
3234 1 2 3 -32 7210. 7346. 383. o
3235 2 -3 3 -32 3116. 1544. 406. o
3235 1 3 3 32 3116. 1544. 406. o
3236 2 -3 3 32 3116. 1015. 530. <
3236 1 3 3 -32 3116. 1015. 530. <
3237 3 4 -4 -28 6390. 4735. 656. o
3237 2 0 4 -32 6390. 4735. 656. o
3237 1 0 4 32 6390. 4735. 656. o
3238 3 -4 -4 28 6391. 5554. 717. o
3238 2 0 4 32 6391. 5554. 717. o
3238 1 0 4 -32 6391. 5554. 717. o
3239 2 -1 4 -32 646. 756. 300. o
3239 1 1 4 32 646. 756. 300. o
3240 2 -1 4 32 647. 290. 321. <
3240 1 1 4 -32 647. 290. 321. <
3241 2 -2 4 -32 12231. 13086. 344. o
3241 1 2 4 32 12231. 13086. 344. o
3242 2 -2 4 32 12249. 12434. 486. o
3242 1 2 4 -32 12249. 12434. 486. o
3243 2 -3 4 -32 265. 528. 300. <
3243 1 3 4 32 265. 528. 300. <
3244 2 -3 4 32 264. 62. 404. <
3244 1 3 4 -32 264. 62. 404. <
3245 2 -4 4 -32 4643. 3336. 448. o
3245 1 4 4 32 4643. 3336. 448. o
3246 2 -4 4 32 4646. 3626. 623. o
3246 1 4 4 -32 4646. 3626. 623. o
3247 3 4 -5 -28 8138. 11066. 987. o
3247 2 0 5 -32 8138. 11066. 987. o
3247 1 0 5 32 8138. 11066. 987. o
3248 3 -4 -5 28 8140. 10247. 864. o
3248 2 0 5 32 8140. 10247. 864. o
3248 1 0 5 -32 8140. 10247. 864. o
3249 2 -1 5 -32 1400. 1192. 321. o
3249 1 1 5 32 1400. 1192. 321. o
3250 2 -1 5 32 1399. 1212. 384. o
3250 1 1 5 -32 1399. 1212. 384. o
3251 2 -2 5 -32 1616. 2166. 300. o
3251 1 2 5 32 1616. 2166. 300. o
3252 2 -2 5 32 1618. 2176. 424. o
3252 1 2 5 -32 1618. 2176. 424. o
3253 2 -3 5 -32 180. 922. 300. o
3253 1 3 5 32 180. 922. 300. o
3254 2 -3 5 32 179. 870. 414. o
3254 1 3 5 -32 179. 870. 414. o
3255 2 -4 5 -32 658. 1264. 310. o
3255 1 4 5 32 658. 1264. 310. o
3256 2 -4 5 32 659. 1150. 404. o
3256 1 4 5 -32 659. 1150. 404. o
3257 2 -5 5 -32 939. 1306. 414. o
3257 1 5 5 32 939. 1306. 414. o
3258 2 -5 5 32 941. 1606. 642. o
3258 1 5 5 -32 941. 1606. 642. o
3259 3 4 -6 -28 9477. 8310. 904. o
3259 2 0 6 -32 9477. 8310. 904. o
3259 1 0 6 32 9477. 8310. 904. o
3260 3 -4 -6 28 9481. 9677. 891. o
3260 2 0 6 32 9481. 9677. 891. o
3260 1 0 6 -32 9481. 9677. 891. o
3261 2 -1 6 -32 518. 860. 321. o
3261 1 1 6 32 518. 860. 321. o
3262 2 -1 6 32 517. 1627. 414. o
3262 1 1 6 -32 517. 1627. 414. o
3263 2 -2 6 -32 3611. 3367. 312. o
3263 1 2 6 32 3611. 3367. 312. o
3264 2 -2 6 32 3610. 2217. 427. o
3264 1 2 6 -32 3610. 2217. 427. o
3265 2 -3 6 -32 64. 984. 310. o
3265 1 3 6 32 64. 984. 310. o
3266 2 -3 6 32 63. 549. 404. <
3266 1 3 6 -32 63. 549. 404. <
3267 2 -4 6 -32 3745. 3471. 332. o
3267 1 4 6 32 3745. 3471. 332. o
3268 2 -4 6 32 3749. 3160. 405. o
3268 1 4 6 -32 3749. 3160. 405. o
3269 3 4 -7 -28 264. 1202. 652. <
3269 2 0 7 -32 264. 1202. 652. <
3269 1 0 7 32 264. 1202. 652. <
3270 3 -4 -7 28 265. 1606. 673. o
3270 2 0 7 32 265. 1606. 673. o
3270 1 0 7 -32 265. 1606. 673. o
3271 2 -1 7 -32 366. 518. 373. <
3271 1 1 7 32 366. 518. 373. <
3272 2 -1 7 32 366. 819. 404. o
3272 1 1 7 -32 366. 819. 404. o
3273 2 -2 7 -32 801. 1326. 321. o
3273 1 2 7 32 801. 1326. 321. o
3274 2 -2 7 32 803. 1461. 435. o
3274 1 2 7 -32 803. 1461. 435. o
3275 2 1 1 -33 23258. 25779. 702. o
3275 1 -1 1 33 23258. 25779. 702. o
3276 2 -1 1 33 23254. 24308. 674. o
3276 1 1 1 -33 23254. 24308. 674. o
3277 3 5 -1 -27 23279. 25375. 706. o
3277 2 -1 1 -33 23279. 25375. 706. o
3277 1 1 1 33 23279. 25375. 706. o
3278 2 -1 1 33 23254. 23261. 715. o
3278 1 1 1 -33 23254. 23261. 715. o
3279 2 1 2 -33 3846. 3544. 363. o
3279 1 -1 2 33 3846. 3544. 363. o
3280 2 -1 2 33 3848. 3440. 343. o
3280 1 1 2 -33 3848. 3440. 343. o
3281 3 5 -2 -27 3846. 3171. 561. o
3281 2 -1 2 -33 3846. 3171. 561. o
3281 1 1 2 33 3846. 3171. 561. o
3282 2 -1 2 33 3848. 3067. 581. o
3282 1 1 2 -33 3848. 3067. 581. o
3283 2 -2 2 -33 894. 870. 435. <
3283 1 2 2 33 894. 870. 435. <
3284 2 -2 2 33 894. 1057. 477. o
3284 1 2 2 -33 894. 1057. 477. o
3285 2 1 3 -33 9451. 8931. 346. o
3285 1 -1 3 33 9451. 8931. 346. o
3286 2 -1 3 33 9450. 8320. 400. o
3286 1 1 3 -33 9450. 8320. 400. o
3287 3 5 -3 -27 9467. 9615. 714. o
3287 2 -1 3 -33 9467. 9615. 714. o
3287 1 1 3 33 9467. 9615. 714. o
3288 2 -1 3 33 9450. 10154. 951. o
3288 1 1 3 -33 9450. 10154. 951. o
3289 2 -2 3 -33 1106. 1243. 290. o
3289 1 2 3 33 1106. 1243. 290. o
3290 2 -2 3 33 1108. 725. 415. <
3290 1 2 3 -33 1108. 725. 415. <
3291 2 -3 3 -33 4878. 5989. 400. o
3291 1 3 3 33 4878. 5989. 400. o
3292 2 -3 3 33 4876. 5699. 661. o
3292 1 3 3 -33 4876. 5699. 661. o
3293 2 1 4 -33 3895. 4673. 329. o
3293 1 -1 4 33 3895. 4673. 329. o
3294 2 -1 4 33 3892. 4466. 392. o
3294 1 1 4 -33 3892. 4466. 392. o
3295 3 5 -4 -27 3896. 4890. 921. o
3295 2 -1 4 -33 3896. 4890. 921. o
3295 1 1 4 33 3896. 4890. 921. o
3296 2 -1 4 33 3892. 5160. 910. o
3296 1 1 4 -33 3892. 5160. 910. o
3297 2 -2 4 -33 971. 1316. 300. o
3297 1 2 4 33 971. 1316. 300. o
3298 2 -2 4 33 971. 839. 435. <
3298 1 2 4 -33 971. 839. 435. <
3299 2 -3 4 -33 807. 1430. 300. o
3299 1 3 4 33 807. 1430. 300. o
3300 2 -3 4 33 807. 1430. 424. o
3300 1 3 4 -33 807. 1430. 424. o
3301 2 -4 4 -33 868. 1471. 466. o
3301 1 4 4 33 868. 1471. 466. o
3302 2 -4 4 33 868. 933. 591. <
3302 1 4 4 -33 868. 933. 591. <
3303 2 1 5 -33 1376. 1368. 363. o
3303 1 -1 5 33 1376. 1368. 363. o
3304 2 -1 5 33 1376. 1150. 446. o
3304 1 1 5 -33 1376. 1150. 446. o
3305 3 5 -5 -27 1385. 787. 798. <
3305 2 -1 5 -33 1385. 787. 798. <
3305 1 1 5 33 1385. 787. 798. <
3306 2 -1 5 33 1376. 891. 643. <
3306 1 1 5 -33 1376. 891. 643. <
3307 2 -2 5 -33 165. 580. 300. <
3307 1 2 5 33 165. 580. 300. <
3308 2 -2 5 33 165. 539. 414. <
3308 1 2 5 -33 165. 539. 414. <
3309 2 -3 5 -33 1083. 1202. 290. o
3309 1 3 5 33 1083. 1202. 290. o
3310 2 -3 5 33 1082. 995. 383. o
3310 1 3 5 -33 1082. 995. 383. o
3311 2 -4 5 -33 150. 787. 311. o
3311 1 4 5 33 150. 787. 311. o
3312 2 -4 5 33 150. 1119. 435. o
3312 1 4 5 -33 150. 1119. 435. o
3313 2 -5 5 -33 898. 1969. 424. o
3313 1 5 5 33 898. 1969. 424. o
3314 2 -5 5 33 897. 2621. 641. o
3314 1 5 5 -33 897. 2621. 641. o
3315 2 1 6 -33 786. 1295. 352. o
3315 1 -1 6 33 786. 1295. 352. o
3316 2 -1 6 33 785. 1917. 465. o
3316 1 1 6 -33 785. 1917. 465. o
3317 3 5 -6 -27 786. 2393. 818. o
3317 2 -1 6 -33 786. 2393. 818. o
3317 1 1 6 33 786. 2393. 818. o
3318 2 -1 6 33 785. 2632. 817. o
3318 1 1 6 -33 785. 2632. 817. o
3319 2 -2 6 -33 224. 995. 310. o
3319 1 2 6 33 224. 995. 310. o
3320 2 -2 6 33 224. 912. 414. o
3320 1 2 6 -33 224. 912. 414. o
3321 2 -3 6 -33 255. 1212. 310. o
3321 1 3 6 33 255. 1212. 310. o
3322 2 -3 6 33 255. 1368. 403. o
3322 1 3 6 -33 255. 1368. 403. o
3323 2 1 7 -33 130. 1347. 341. o
3323 1 -1 7 33 130. 1347. 341. o
3324 2 -1 7 33 130. 819. 456. <
3324 1 1 7 -33 130. 819. 456. <
3325 3 5 -7 -27 135. 1565. 1005. <
3325 2 -1 7 -33 135. 1565. 1005. <
3325 1 1 7 33 135. 1565. 1005. <
3326 2 -1 7 33 130. 363. 725. <
3326 1 1 7 -33 130. 363. 725. <
3327 2 0 0 -34 19002. 13957. 935. o
3327 1 0 0 34 19002. 13957. 935. o
3328 2 0 0 34 19019. 12174. 731. o
3328 1 0 0 -34 19019. 12174. 731. o
3329 2 0 1 -34 116. 1202. 393. o
3329 1 0 1 34 116. 1202. 393. o
3330 2 0 1 34 116. 891. 362. o
3330 1 0 1 -34 116. 891. 362. o
3331 2 -1 1 -34 5402. 6237. 443. o
3331 1 1 1 34 5402. 6237. 443. o
3332 2 -1 1 34 5401. 5958. 381. o
3332 1 1 1 -34 5401. 5958. 381. o
3333 2 2 2 -34 3108. 1513. 540. o
3333 1 -2 2 34 3108. 1513. 540. o
3334 2 -2 2 34 3110. -176. 871. <
3334 1 2 2 -34 3110. -176. 871. <
3335 2 0 2 -34 11662. 19811. 404. o
3335 1 0 2 34 11662. 19811. 404. o
3336 2 0 2 34 11664. 18464. 458. o
3336 1 0 2 -34 11664. 18464. 458. o
3337 2 -1 2 -34 504. 1906. 309. o
3337 1 1 2 34 504. 1906. 309. o
3338 2 -1 2 34 504. 1461. 289. o
3338 1 1 2 -34 504. 1461. 289. o
3339 3 6 -2 -26 3129. 394. 716. <
3339 2 -2 2 -34 3129. 394. 716. <
3339 1 2 2 34 3129. 394. 716. <
3340 2 -2 2 34 3110. 1150. 634. <
3340 1 2 2 -34 3110. 1150. 634. <
3341 2 2 3 -34 130. 518. 290. <
3341 1 -2 3 34 130. 518. 290. <
3342 2 -2 3 34 130. 228. 487. <
3342 1 2 3 -34 130. 228. 487. <
3343 2 0 3 -34 1531. 2829. 423. o
3343 1 0 3 34 1531. 2829. 423. o
3344 2 0 3 34 1532. 3761. 535. o
3344 1 0 3 -34 1532. 3761. 535. o
3345 2 -1 3 -34 1496. 1616. 311. o
3345 1 1 3 34 1496. 1616. 311. o
3346 2 -1 3 34 1496. 1979. 362. o
3346 1 1 3 -34 1496. 1979. 362. o
3347 3 6 -3 -26 155. -663. 684. <
3347 2 -2 3 -34 155. -663. 684. <
3347 1 2 3 34 155. -663. 684. <
3348 2 -2 3 34 130. -632. 850. <
3348 1 2 3 -34 130. -632. 850. <
3349 2 -3 3 -34 9089. 9626. 474. o
3349 1 3 3 34 9089. 9626. 474. o
3350 2 -3 3 34 9089. 8900. 591. o
3350 1 3 3 -34 9089. 8900. 591. o
3351 2 2 4 -34 798. 1596. 320. o
3351 1 -2 4 34 798. 1596. 320. o
3352 2 -2 4 34 794. 1233. 487. o
3352 1 2 4 -34 794. 1233. 487. o
3353 2 0 4 -34 679. 487. 456. <
3353 1 0 4 34 679. 487. 456. <
3354 2 0 4 34 682. 1212. 456. o
3354 1 0 4 -34 682. 1212. 456. o
3355 2 -1 4 -34 191. 1523. 351. o
3355 1 1 4 34 191. 1523. 351. o
3356 2 -1 4 34 190. 1181. 383. o
3356 1 1 4 -34 190. 1181. 383. o
3357 3 6 -4 -26 814. 1855. 870. o
3357 2 -2 4 -34 814. 1855. 870. o
3357 1 2 4 34 814. 1855. 870. o
3358 2 -2 4 34 794. 1192. 735. <
3358 1 2 4 -34 794. 1192. 735. <
3359 2 -3 4 -34 376. 891. 321. o
3359 1 3 4 34 376. 891. 321. o
3360 2 -3 4 34 376. 1212. 404. o
3360 1 3 4 -34 376. 1212. 404. o
3361 2 -4 4 -34 442. 1306. 466. o
3361 1 4 4 34 442. 1306. 466. o
3362 2 -4 4 34 444. 1554. 590. o
3362 1 4 4 -34 444. 1554. 590. o
3363 2 2 5 -34 581. 1409. 300. o
3363 1 -2 5 34 581. 1409. 300. o
3364 2 -2 5 34 581. 1710. 486. o
3364 1 2 5 -34 581. 1710. 486. o
3365 2 0 5 -34 142. 321. 497. <
3365 1 0 5 34 142. 321. 497. <
3366 2 0 5 34 143. 601. 497. <
3366 1 0 5 -34 143. 601. 497. <
3367 2 -1 5 -34 3514. 4041. 320. o
3367 1 1 5 34 3514. 4041. 320. o
3368 2 -1 5 34 3514. 4435. 433. o
3368 1 1 5 -34 3514. 4435. 433. o
3369 3 6 -5 -26 581. 1782. 652. o
3369 2 -2 5 -34 581. 1782. 652. o
3369 1 2 5 34 581. 1782. 652. o
3370 2 -2 5 34 581. 1513. 652. o
3370 1 2 5 -34 581. 1513. 652. o
3371 2 -3 5 -34 371. 1347. 310. o
3371 1 3 5 34 371. 1347. 310. o
3372 2 -3 5 34 371. 1243. 445. o
3372 1 3 5 -34 371. 1243. 445. o
3373 2 -4 5 -34 61. 1119. 310. o
3373 1 4 5 34 61. 1119. 310. o
3374 2 -4 5 34 61. 1399. 403. o
3374 1 4 5 -34 61. 1399. 403. o
3375 2 2 6 -34 1206. 3274. 369. o
3375 1 -2 6 34 1206. 3274. 369. o
3376 2 -2 6 34 1207. 2756. 516. o
3376 1 2 6 -34 1207. 2756. 516. o
3377 2 0 6 -34 455. 974. 445. o
3377 1 0 6 34 455. 974. 445. o
3378 2 0 6 34 453. 1388. 611. o
3378 1 0 6 -34 453. 1388. 611. o
3379 2 -1 6 -34 116. 1005. 341. o
3379 1 1 6 34 116. 1005. 341. o
3380 2 -1 6 34 116. 715. 404. <
3380 1 1 6 -34 116. 715. 404. <
3381 3 6 -6 -26 1231. 4238. 951. o
3381 2 -2 6 -34 1231. 4238. 951. o
3381 1 2 6 34 1231. 4238. 951. o
3382 2 -2 6 34 1207. 2197. 932. o
3382 1 2 6 -34 1207. 2197. 932. o
3383 2 -3 6 -34 325. 1233. 331. o
3383 1 3 6 34 325. 1233. 331. o
3384 2 -3 6 34 325. 1026. 487. o
3384 1 3 6 -34 325. 1026. 487. o
3385 2 -1 1 -35 1328. 839. 435. <
3385 1 1 1 35 1328. 839. 435. <
3386 2 -1 1 35 1332. -238. 415. <
3386 1 1 1 -35 1332. -238. 415. <
3387 2 -1 2 -35 3834. 4072. 320. o
3387 1 1 2 35 3834. 4072. 320. o
3388 2 -1 2 35 3835. 3253. 313. o
3388 1 1 2 -35 3835. 3253. 313. o
3389 2 -2 2 -35 4. 497. 445. <
3389 1 2 2 35 4. 497. 445. <
3390 2 -2 2 35 4. 891. 507. <
3390 1 2 2 -35 4. 891. 507. <
3391 2 3 3 -35 1289. 1647. 528. o
3391 1 -3 3 35 1289. 1647. 528. o
3392 2 -3 3 35 1288. 2383. 797. o
3392 1 3 3 -35 1288. 2383. 797. o
3393 2 -1 3 -35 1148. 1285. 300. o
3393 1 1 3 35 1148. 1285. 300. o
3394 2 -1 3 35 1150. 1264. 363. o
3394 1 1 3 -35 1150. 1264. 363. o
3395 2 -2 3 -35 830. 642. 290. o
3395 1 2 3 35 830. 642. 290. o
3396 2 -2 3 35 831. 1119. 404. o
3396 1 2 3 -35 831. 1119. 404. o
3397 3 7 -3 -25 1298. 1803. 880. o
3397 2 -3 3 -35 1298. 1803. 880. o
3397 1 3 3 35 1298. 1803. 880. o
3398 2 -3 3 35 1288. 601. 819. <
3398 1 3 3 -35 1288. 601. 819. <
3399 2 3 4 -35 892. 1399. 352. o
3399 1 -3 4 35 892. 1399. 352. o
3400 2 -3 4 35 891. 1782. 465. o
3400 1 3 4 -35 891. 1782. 465. o
3401 2 -1 4 -35 3727. 4041. 331. o
3401 1 1 4 35 3727. 4041. 331. o
3402 2 -1 4 35 3723. 4362. 382. o
3402 1 1 4 -35 3723. 4362. 382. o
3403 2 -2 4 -35 67. 746. 311. o
3403 1 2 4 35 67. 746. 311. o
3404 2 -2 4 35 67. 228. 394. <
3404 1 2 4 -35 67. 228. 394. <
3405 3 7 -4 -25 895. 1326. 922. <
3405 2 -3 4 -35 895. 1326. 922. <
3405 1 3 4 35 895. 1326. 922. <
3406 2 -3 4 35 891. 425. 829. <
3406 1 3 4 -35 891. 425. 829. <
3407 2 -4 4 -35 89. 1098. 445. o
3407 1 4 4 35 89. 1098. 445. o
3408 2 -4 4 35 90. -73. 591. <
3408 1 4 4 -35 90. -73. 591. <
3409 2 3 5 -35 1194. 1679. 352. o
3409 1 -3 5 35 1194. 1679. 352. o
3410 2 -3 5 35 1192. 1109. 456. o
3410 1 3 5 -35 1192. 1109. 456. o
3411 2 -1 5 -35 1266. 1544. 300. o
3411 1 1 5 35 1266. 1544. 300. o
3412 2 -1 5 35 1266. 1419. 414. o
3412 1 1 5 -35 1266. 1419. 414. o
3413 2 -2 5 -35 14. 622. 300. o
3413 1 2 5 35 14. 622. 300. o
3414 2 -2 5 35 14. 1264. 424. o
3414 1 2 5 -35 14. 1264. 424. o
3415 3 7 -5 -25 1214. 1171. 674. <
3415 2 -3 5 -35 1214. 1171. 674. <
3415 1 3 5 35 1214. 1171. 674. <
3416 2 -3 5 35 1192. 1264. 974. <
3416 1 3 5 -35 1192. 1264. 974. <
3417 2 -4 5 -35 47. 1212. 320. o
3417 1 4 5 35 47. 1212. 320. o
3418 2 -4 5 35 47. 1679. 444. o
3418 1 4 5 -35 47. 1679. 444. o
3419 2 -1 6 -35 1017. 1679. 352. o
3419 1 1 6 35 1017. 1679. 352. o
3420 2 -1 6 35 1014. 1067. 394. o
3420 1 1 6 -35 1014. 1067. 394. o
3421 2 -2 6 -35 1. 870. 321. o
3421 1 2 6 35 1. 870. 321. o
3422 2 -2 6 35 1. 933. 445. o
3422 1 2 6 -35 1. 933. 445. o
3423 2 0 0 -36 20161. 25986. 1053. o
3423 1 0 0 36 20161. 25986. 1053. o
3424 2 0 0 36 20179. 23800. 951. o
3424 1 0 0 -36 20179. 23800. 951. o
3425 2 0 1 -36 1101. 332. 394. <
3425 1 0 1 36 1101. 332. 394. <
3426 2 0 1 36 1100. 632. 394. <
3426 1 0 1 -36 1100. 632. 394. <
3427 2 -1 1 -36 3265. 3129. 425. o
3427 1 1 1 36 3265. 3129. 425. o
3428 2 -1 1 36 3265. 2601. 457. o
3428 1 1 1 -36 3265. 2601. 457. o
3429 2 0 2 -36 17876. 19324. 525. o
3429 1 0 2 36 17876. 19324. 525. o
3430 2 0 2 36 17883. 17003. 546. o
3430 1 0 2 -36 17883. 17003. 546. o
3431 2 -1 2 -36 667. 1036. 311. o
3431 1 1 2 36 667. 1036. 311. o
3432 2 -1 2 36 666. 1212. 310. o
3432 1 1 2 -36 666. 1212. 310. o
3433 2 -2 2 -36 6182. 7460. 534. o
3433 1 2 2 36 6182. 7460. 534. o
3434 2 -2 2 36 6182. 7211. 546. o
3434 1 2 2 -36 6182. 7211. 546. o
3435 2 0 3 -36 2093. 2808. 424. o
3435 1 0 3 36 2093. 2808. 424. o
3436 2 0 3 36 2093. 2497. 518. o
3436 1 0 3 -36 2093. 2497. 518. o
3437 2 -1 3 -36 5461. 4549. 335. o
3437 1 1 3 36 5461. 4549. 335. o
3438 2 -1 3 36 5460. 4331. 387. o
3438 1 1 3 -36 5460. 4331. 387. o
3439 2 -2 3 -36 1378. 1098. 311. o
3439 1 2 3 36 1378. 1098. 311. o
3440 2 -2 3 36 1377. 922. 404. o
3440 1 2 3 -36 1377. 922. 404. o
3441 2 -3 3 -36 432. 694. 466. <
3441 1 3 3 36 432. 694. 466. <
3442 2 -3 3 36 432. 1285. 580. o
3442 1 3 3 -36 432. 1285. 580. o
3443 3 1 -4 -39 962. 2300. 506. o
3443 2 4 4 -36 962. 2300. 506. o
3443 1 -4 4 36 962. 2300. 506. o
3444 3 -1 -4 39 960. 2000. 839. o
3444 2 -4 4 36 960. 2000. 839. o
3444 1 4 4 -36 960. 2000. 839. o
3445 2 0 4 -36 2075. 1782. 487. o
3445 1 0 4 36 2075. 1782. 487. o
3446 2 0 4 36 2076. 1585. 467. o
3446 1 0 4 -36 2076. 1585. 467. o
3447 2 -1 4 -36 421. 622. 342. <
3447 1 1 4 36 421. 622. 342. <
3448 2 -1 4 36 421. 912. 362. o
3448 1 1 4 -36 421. 912. 362. o
3449 2 -2 4 -36 3558. 2922. 333. o
3449 1 2 4 36 3558. 2922. 333. o
3450 2 -2 4 36 3557. 3264. 456. o
3450 1 2 4 -36 3557. 3264. 456. o
3451 2 -3 4 -36 139. 1119. 321. o
3451 1 3 4 36 139. 1119. 321. o
3452 2 -3 4 36 139. 1596. 445. o
3452 1 3 4 -36 139. 1596. 445. o
3453 3 8 -4 -24 961. 1513. 715. o
3453 2 -4 4 -36 961. 1513. 715. o
3453 1 4 4 36 961. 1513. 715. o
3454 3 -8 -4 24 960. 3398. 910. o
3454 2 4 4 36 960. 3398. 910. o
3454 1 -4 4 -36 960. 3398. 910. o
3455 2 0 5 -36 1012. 953. 487. <
3455 1 0 5 36 1012. 953. 487. <
3456 2 0 5 36 1015. 870. 446. <
3456 1 0 5 -36 1015. 870. 446. <
3457 2 -1 5 -36 1123. 1399. 311. o
3457 1 1 5 36 1123. 1399. 311. o
3458 2 -1 5 36 1123. 1254. 394. o
3458 1 1 5 -36 1123. 1254. 394. o
3459 2 -2 5 -36 613. 2010. 319. o
3459 1 2 5 36 613. 2010. 319. o
3460 2 -2 5 36 614. 1585. 497. o
3460 1 2 5 -36 614. 1585. 497. o
3461 2 -3 5 -36 4594. 3989. 354. o
3461 1 3 5 36 4594. 3989. 354. o
3462 2 -3 5 36 4594. 3626. 448. o
3462 1 3 5 -36 4594. 3626. 448. o
3463 2 0 6 -36 1224. 1419. 549. o
3463 1 0 6 36 1224. 1419. 549. o
3464 2 0 6 36 1227. 342. 643. <
3464 1 0 6 -36 1227. 342. 643. <
3465 2 -1 6 -36 36. 549. 362. <
3465 1 1 6 36 36. 549. 362. <
3466 2 -1 6 36 36. 1119. 393. o
3466 1 1 6 -36 36. 1119. 393. o
3467 2 -1 1 -37 16031. 15500. 553. o
3467 1 1 1 37 16031. 15500. 553. o
3468 2 -1 1 37 16018. 13003. 490. o
3468 1 1 1 -37 16018. 13003. 490. o
3469 2 -1 2 -37 1304. 1668. 331. o
3469 1 1 2 37 1304. 1668. 331. o
3470 2 -1 2 37 1305. 1357. 311. o
3470 1 1 2 -37 1305. 1357. 311. o
3471 2 -2 2 -37 875. 933. 487. <
3471 1 2 2 37 875. 933. 487. <
3472 2 -2 2 37 876. 1046. 508. o
3472 1 2 2 -37 876. 1046. 508. o
3473 2 -1 3 -37 5358. 4538. 335. o
3473 1 1 3 37 5358. 4538. 335. o
3474 2 -1 3 37 5357. 4372. 366. o
3474 1 1 3 -37 5357. 4372. 366. o
3475 2 -2 3 -37 447. 632. 300. o
3475 1 2 3 37 447. 632. 300. o
3476 2 -2 3 37 448. 756. 404. <
3476 1 2 3 -37 448. 756. 404. <
3477 2 -3 3 -37 2503. 3316. 465. o
3477 1 3 3 37 2503. 3316. 465. o
3478 2 3 3 37 2506. 1575. 871. <
3478 1 -3 3 -37 2506. 1575. 871. <
3479 3 -2 -3 38 2519. 2425. 674. o
3479 2 -3 3 37 2519. 2425. 674. o
3479 1 3 3 -37 2519. 2425. 674. o
3480 2 -1 4 -37 957. 1243. 311. o
3480 1 1 4 37 957. 1243. 311. o
3481 2 -1 4 37 955. 1679. 362. o
3481 1 1 4 -37 955. 1679. 362. o
3482 2 -2 4 -37 945. 1274. 342. o
3482 1 2 4 37 945. 1274. 342. o
3483 2 -2 4 37 946. 974. 456. o
3483 1 2 4 -37 946. 974. 456. o
3484 2 -3 4 -37 261. 684. 300. o
3484 1 3 4 37 261. 684. 300. o
3485 2 3 4 37 260. 1212. 518. o
3485 1 -3 4 -37 260. 1212. 518. o
3486 3 -2 -4 38 267. 466. 819. <
3486 2 -3 4 37 267. 466. 819. <
3486 1 3 4 -37 267. 466. 819. <
3487 2 3 4 37 260. 642. 632. <
3487 1 -3 4 -37 260. 642. 632. <
3488 2 -4 4 -37 1509. 2487. 455. o
3488 1 4 4 37 1509. 2487. 455. o
3489 2 -4 4 37 1507. 2248. 631. o
3489 1 4 4 -37 1507. 2248. 631. o
3490 2 -1 5 -37 877. 560. 332. <
3490 1 1 5 37 877. 560. 332. <
3491 2 -1 5 37 876. 1015. 404. o
3491 1 1 5 -37 876. 1015. 404. o
3492 2 -2 5 -37 100. 570. 321. <
3492 1 2 5 37 100. 570. 321. <
3493 2 -2 5 37 100. 736. 528. <
3493 1 2 5 -37 100. 736. 528. <
3494 2 0 0 -38 5798. 6590. 1004. o
3494 1 0 0 38 5798. 6590. 1004. o
3495 2 0 0 38 5801. 5719. 870. o
3495 1 0 0 -38 5801. 5719. 870. o
3496 2 0 1 -38 1196. 808. 456. <
3496 1 0 1 38 1196. 808. 456. <
3497 2 0 1 38 1195. 984. 435. o
3497 1 0 1 -38 1195. 984. 435. o
3498 2 -1 1 -38 122. 591. 497. <
3498 1 1 1 38 122. 591. 497. <
3499 2 -1 1 38 122. 850. 456. <
3499 1 1 1 -38 122. 850. 456. <
3500 2 0 2 -38 1056. 3088. 432. o
3500 1 0 2 38 1056. 3088. 432. o
3501 2 0 2 38 1056. 2538. 444. o
3501 1 0 2 -38 1056. 2538. 444. o
3502 2 -1 2 -38 1649. 2269. 331. o
3502 1 1 2 38 1649. 2269. 331. o
3503 2 -1 2 38 1647. 2342. 320. o
3503 1 1 2 -38 1647. 2342. 320. o
3504 2 -2 2 -38 2007. 2062. 487. o
3504 1 2 2 38 2007. 2062. 487. o
3505 2 2 2 38 2001. 2124. 1005. o
3505 1 -2 2 -38 2001. 2124. 1005. o
3506 3 -3 -2 37 2003. 2476. 922. o
3506 2 -2 2 38 2003. 2476. 922. o
3506 1 2 2 -38 2003. 2476. 922. o
3507 2 2 2 38 2001. 1637. 1098. <
3507 1 -2 2 -38 2001. 1637. 1098. <
3508 2 0 3 -38 7355. 8745. 460. o
3508 1 0 3 38 7355. 8745. 460. o
3509 2 0 3 38 7355. 8610. 544. o
3509 1 0 3 -38 7355. 8610. 544. o
3510 2 -1 3 -38 63. 653. 300. o
3510 1 1 3 38 63. 653. 300. o
3511 2 -1 3 38 63. 787. 383. o
3511 1 1 3 -38 63. 787. 383. o
3512 2 -2 3 -38 2362. 1751. 322. o
3512 1 2 3 38 2362. 1751. 322. o
3513 2 2 3 38 2361. 850. 623. <
3513 1 -2 3 -38 2361. 850. 623. <
3514 3 -3 -3 37 2375. 819. 892. <
3514 2 -2 3 38 2375. 819. 892. <
3514 1 2 3 -38 2375. 819. 892. <
3515 2 2 3 38 2361. 1254. 736. <
3515 1 -2 3 -38 2361. 1254. 736. <
3516 2 -3 3 -38 47. 1337. 486. o
3516 1 3 3 38 47. 1337. 486. o
3517 2 -3 3 38 47. 1192. 652. <
3517 1 3 3 -38 47. 1192. 652. <
3518 2 0 4 -38 1105. 1409. 507. o
3518 1 0 4 38 1105. 1409. 507. o
3519 2 0 4 38 1102. 1772. 497. o
3519 1 0 4 -38 1102. 1772. 497. o
3520 2 -1 4 -38 275. 642. 331. <
3520 1 1 4 38 275. 642. 331. <
3521 2 -1 4 38 275. 477. 383. <
3521 1 1 4 -38 275. 477. 383. <
3522 2 -2 4 -38 1218. 3046. 349. o
3522 1 2 4 38 1218. 3046. 349. o
3523 2 2 4 38 1220. 2549. 527. o
3523 1 -2 4 -38 1220. 2549. 527. o
3524 3 -3 -4 37 1221. 3419. 827. o
3524 2 -2 4 38 1221. 3419. 827. o
3524 1 2 4 -38 1221. 3419. 827. o
3525 2 2 4 38 1220. 2383. 859. o
3525 1 -2 4 -38 1220. 2383. 859. o
3526 2 -3 4 -38 462. 1057. 310. o
3526 1 3 4 38 462. 1057. 310. o
3527 2 -3 4 38 462. 1243. 497. o
3527 1 3 4 -38 462. 1243. 497. o
3528 2 0 5 -38 2151. 2393. 476. o
3528 1 0 5 38 2151. 2393. 476. o
3529 2 0 5 38 2155. 2238. 508. o
3529 1 0 5 -38 2155. 2238. 508. o
3530 2 -1 5 -38 36. 943. 341. o
3530 1 1 5 38 36. 943. 341. o
3531 2 -1 5 38 36. 829. 393. o
3531 1 1 5 -38 36. 829. 393. o
3532 2 -1 1 -39 10959. 11221. 527. o
3532 1 1 1 39 10959. 11221. 527. o
3533 2 1 1 39 10953. 9936. 1111. o
3533 1 -1 1 -39 10953. 9936. 1111. o
3534 3 -4 -1 36 10955. 10662. 871. o
3534 2 -1 1 39 10955. 10662. 871. o
3534 1 1 1 -39 10955. 10662. 871. o
3535 2 1 1 39 10953. 10931. 995. o
3535 1 -1 1 -39 10953. 10931. 995. o
3536 3 -4 -1 36 10955. 11532. 1003. o
3536 2 -1 1 39 10955. 11532. 1003. o
3536 1 1 1 -39 10955. 11532. 1003. o
3537 2 -1 2 -39 931. 1451. 331. o
3537 1 1 2 39 931. 1451. 331. o
3538 2 1 2 39 930. 1533. 642. o
3538 1 -1 2 -39 930. 1533. 642. o
3539 3 -4 -2 36 950. 1357. 653. o
3539 2 -1 2 39 950. 1357. 653. o
3539 1 1 2 -39 950. 1357. 653. o
3540 2 1 2 39 930. 974. 435. o
3540 1 -1 2 -39 930. 974. 435. o
3541 3 -4 -2 36 950. 1223. 808. <
3541 2 -1 2 39 950. 1223. 808. <
3541 1 1 2 -39 950. 1223. 808. <
3542 2 -2 2 -39 640. 1119. 507. o
3542 1 2 2 39 640. 1119. 507. o
3543 2 -2 2 39 641. 1160. 528. o
3543 1 2 2 -39 641. 1160. 528. o
3544 2 -1 3 -39 2882. 3057. 331. o
3544 1 1 3 39 2882. 3057. 331. o
3545 2 1 3 39 2884. 2518. 736. o
3545 1 -1 3 -39 2884. 2518. 736. o
3546 3 -4 -3 36 2885. 3554. 683. o
3546 2 -1 3 39 2885. 3554. 683. o
3546 1 1 3 -39 2885. 3554. 683. o
3547 2 1 3 39 2884. 2601. 456. o
3547 1 -1 3 -39 2884. 2601. 456. o
3548 2 -2 3 -39 220. 663. 321. o
3548 1 2 3 39 220. 663. 321. o
3549 2 -2 3 39 220. 1326. 435. o
3549 1 2 3 -39 220. 1326. 435. o
3550 2 -3 3 -39 788. 1451. 476. o
3550 1 3 3 39 788. 1451. 476. o
3551 2 -3 3 39 790. 1689. 673. o
3551 1 3 3 -39 790. 1689. 673. o
3552 2 -1 4 -39 1377. 1917. 341. o
3552 1 1 4 39 1377. 1917. 341. o
3553 2 1 4 39 1376. 1274. 560. o
3553 1 -1 4 -39 1376. 1274. 560. o
3554 3 -4 -4 36 1381. 839. 663. <
3554 2 -1 4 39 1381. 839. 663. <
3554 1 1 4 -39 1381. 839. 663. <
3555 2 1 4 39 1376. 1492. 704. o
3555 1 -1 4 -39 1376. 1492. 704. o
3556 2 -2 4 -39 664. 953. 352. o
3556 1 2 4 39 664. 953. 352. o
3557 2 -2 4 39 664. 1150. 466. o
3557 1 2 4 -39 664. 1150. 466. o
3558 2 0 0 -40 19750. 27250. 1192. o
3558 1 0 0 40 19750. 27250. 1192. o
3559 2 0 0 40 19757. 24732. 1059. o
3559 1 0 0 -40 19757. 24732. 1059. o
3560 2 -1 0 -40 1278. 2352. 724. o
3560 1 1 0 40 1278. 2352. 724. o
3561 2 -1 0 40 1276. 1627. 611. o
3561 1 1 0 -40 1276. 1627. 611. o
3562 2 -2 0 -40 12090. 5595. 754. o
3562 1 2 0 40 12090. 5595. 754. o
3563 2 -2 0 40 12090. 4569. 704. o
3563 1 2 0 -40 12090. 4569. 704. o
3564 2 -3 0 -40 112. 1129. 642. <
3564 1 3 0 40 112. 1129. 642. <
3565 2 -3 0 40 113. 705. 684. <
3565 1 3 0 -40 113. 705. 684. <
3566 2 -4 0 -40 3977. 6030. 773. o
3566 1 4 0 40 3977. 6030. 773. o
3567 2 -4 0 40 3980. 6186. 763. o
3567 1 4 0 -40 3980. 6186. 763. o
3568 3 5 -1 -35 1285. 2766. 683. o
3568 2 0 1 -40 1285. 2766. 683. o
3568 1 0 1 40 1285. 2766. 683. o
3569 3 -5 -1 35 1283. 1440. 601. o
3569 2 0 1 40 1283. 1440. 601. o
3569 1 0 1 -40 1283. 1440. 601. o
3570 2 -1 1 -40 1244. 1751. 497. o
3570 1 1 1 40 1244. 1751. 497. o
3571 2 -1 1 40 1245. 1533. 466. o
3571 1 1 1 -40 1245. 1533. 466. o
3572 3 5 -2 -35 12090. 6051. 723. o
3572 2 0 2 -40 12090. 6051. 723. o
3572 1 0 2 40 12090. 6051. 723. o
3573 3 -5 -2 35 12090. 4041. 654. o
3573 2 0 2 40 12090. 4041. 654. o
3573 1 0 2 -40 12090. 4041. 654. o
3574 2 -1 2 -40 159. 901. 331. o
3574 1 1 2 40 159. 901. 331. o
3575 2 -1 2 40 160. 1109. 331. o
3575 1 1 2 -40 160. 1109. 331. o
3576 2 -2 2 -40 9336. 13666. 490. o
3576 1 2 2 40 9336. 13666. 490. o
3577 2 -2 2 40 9339. 12268. 618. o
3577 1 2 2 -40 9339. 12268. 618. o
3578 3 5 -3 -35 119. 601. 570. <
3578 2 0 3 -40 119. 601. 570. <
3578 1 0 3 40 119. 601. 570. <
3579 3 -5 -3 35 119. 642. 673. <
3579 2 0 3 40 119. 642. 673. <
3579 1 0 3 -40 119. 642. 673. <
3580 2 -1 3 -40 2410. 2134. 332. o
3580 1 1 3 40 2410. 2134. 332. o
3581 2 -1 3 40 2409. 2445. 373. o
3581 1 1 3 -40 2409. 2445. 373. o
3582 2 -2 3 -40 1003. 2207. 330. o
3582 1 2 3 40 1003. 2207. 330. o
3583 2 -2 3 40 1002. 1865. 414. o
3583 1 2 3 -40 1002. 1865. 414. o
3584 2 -3 3 -40 340. 881. 404. o
3584 1 3 3 40 340. 881. 404. o
3585 2 -3 3 40 340. 870. 590. <
3585 1 3 3 -40 340. 870. 590. <
3586 3 5 -4 -35 3978. 6051. 784. o
3586 2 0 4 -40 3978. 6051. 784. o
3586 1 0 4 40 3978. 6051. 784. o
3587 3 -5 -4 35 3980. 5429. 723. o
3587 2 0 4 40 3980. 5429. 723. o
3587 1 0 4 -40 3980. 5429. 723. o
3588 2 -1 4 -40 237. 1181. 362. o
3588 1 1 4 40 237. 1181. 362. o
3589 2 -1 4 40 236. 1026. 393. o
3589 1 1 4 -40 236. 1026. 393. o
3590 2 1 1 -41 4850. 3989. 778. o
3590 1 -1 1 41 4850. 3989. 778. o
3591 2 -1 1 41 4842. 2808. 604. o
3591 1 1 1 -41 4842. 2808. 604. o
3592 3 6 -1 -34 4851. 4093. 685. o
3592 2 -1 1 -41 4851. 4093. 685. o
3592 1 1 1 41 4851. 4093. 685. o
3593 2 -1 1 41 4842. 3523. 603. o
3593 1 1 1 -41 4842. 3523. 603. o
3594 2 1 2 -41 1031. 1326. 414. o
3594 1 -1 2 41 1031. 1326. 414. o
3595 2 -1 2 41 1032. 891. 415. o
3595 1 1 2 -41 1032. 891. 415. o
3596 3 6 -2 -34 1038. 1274. 715. <
3596 2 -1 2 -41 1038. 1274. 715. <
3596 1 1 2 41 1038. 1274. 715. <
3597 2 -1 2 41 1032. 611. 674. <
3597 1 1 2 -41 1032. 611. 674. <
3598 2 -2 2 -41 67. 715. 425. <
3598 1 2 2 41 67. 715. 425. <
3599 2 -2 2 41 67. 1368. 559. o
3599 1 2 2 -41 67. 1368. 559. o
3600 2 1 3 -41 3760. 3440. 384. o
3600 1 -1 3 41 3760. 3440. 384. o
3601 2 -1 3 41 3754. 3274. 426. o
3601 1 1 3 -41 3754. 3274. 426. o
3602 3 6 -3 -34 3761. 3512. 767. o
3602 2 -1 3 -41 3761. 3512. 767. o
3602 1 1 3 41 3761. 3512. 767. o
3603 2 -1 3 41 3754. 3595. 767. o
3603 1 1 3 -41 3754. 3595. 767. o
3604 2 -2 3 -41 109. 694. 321. o
3604 1 2 3 41 109. 694. 321. o
3605 2 -2 3 41 109. 850. 445. <
3605 1 2 3 -41 109. 850. 445. <
3606 2 0 0 -42 827. 3398. 1086. o
3606 1 0 0 42 827. 3398. 1086. o
3607 2 0 0 42 828. 3243. 920. o
3607 1 0 0 -42 828. 3243. 920. o
3608 2 0 1 -42 120. 705. 445. <
3608 1 0 1 42 120. 705. 445. <
3609 2 0 1 42 121. 1233. 476. o
3609 1 0 1 -42 121. 1233. 476. o
3610 2 -1 1 -42 1015. 1596. 497. o
3610 1 1 1 42 1015. 1596. 497. o
3611 2 -1 1 42 1015. 870. 466. <
3611 1 1 1 -42 1015. 870. 466. <
3612 2 2 2 -42 77. 1078. 580. <
3612 1 -2 2 42 77. 1078. 580. <
3613 2 -2 2 42 77. 1647. 994. <
3613 1 2 2 -42 77. 1647. 994. <
3614 2 0 2 -42 645. 1181. 487. o
3614 1 0 2 42 645. 1181. 487. o
3615 2 0 2 42 645. 1399. 528. o
3615 1 0 2 -42 645. 1399. 528. o
3616 2 -1 2 -42 709. 798. 352. o
3616 1 1 2 42 709. 798. 352. o
3617 2 -1 2 42 708. 601. 352. <
3617 1 1 2 -42 708. 601. 352. <
3618 3 7 -2 -33 78. 933. 798. <
3618 2 -2 2 -42 78. 933. 798. <
3618 1 2 2 42 78. 933. 798. <
3619 2 -2 2 42 77. 508. 736. <
3619 1 2 2 -42 77. 508. 736. <
3620 2 0 3 -42 1126. 1078. 477. o
3620 1 0 3 42 1126. 1078. 477. o
3621 2 0 3 42 1127. 1150. 559. o
3621 1 0 3 -42 1127. 1150. 559. o
3622 2 -1 1 -43 1005. 1026. 518. <
3622 1 1 1 43 1005. 1026. 518. <
3623 2 -1 1 43 1008. 839. 487. <
3623 1 1 1 -43 1008. 839. 487. <
