####################################################################### 
# 
# This file contains crystal structure data downloaded from the 
# Cambridge Structural Database (CSD) hosted by the Cambridge 
# Crystallographic Data Centre (CCDC).
# 
# Full information about CCDC data access policies and citation 
# guidelines are available at http://www.ccdc.cam.ac.uk/access/V1 
# 
# Audit and citation data items may have been added by the CCDC. 
# Please retain this information to preserve the provenance of 
# this file and to allow appropriate attribution of the data. 
# 
#######################################################################

data_6b.IPA3Sn2I7-293K
_audit_block_doi                 10.5517/ccdc.csd.cc1ncdt7
_database_code_depnum_ccdc_archive 'CCDC 1530309'
loop_
_citation_id
_citation_doi
_citation_year
1 10.1021/acs.inorgchem.6b02764 2017
_audit_update_record             
;
2017-01-30 deposited with the CCDC.	2022-09-05 downloaded from the CCDC.
;
#=======================================================================

# 5. CHEMICAL DATA

_chemical_name_systematic        
; ?
;
_chemical_name_common            'Isopropylammonium Tin Iodide'
_chemical_formula_moiety         ((CH3)2C(H)NH3)3Sn2I7
_chemical_formula_structural     ?
_chemical_formula_analytical     ?
_chemical_formula_iupac          ?
_chemical_formula_sum            'C9 H30 I7 N3 Sn2'
_chemical_formula_weight         1306.1
_chemical_melting_point          ?
_chemical_compound_source        ?
_chemical_absolute_configuration ?

#=======================================================================

# 6. CRYSTAL DATA

_symmetry_cell_setting           orthorhombic
_symmetry_space_group_name_H-M   'A c 2 a'
_symmetry_space_group_name_Hall  'A -2ac -2ac'
_symmetry_Int_Tables_number      41

loop_
_space_group_symop_id
_space_group_symop_operation_xyz
1 x,y,z
2 -x,y,-z
3 -x+1/2,y,z+1/2
4 x+1/2,y,-z+1/2
5 x,y+1/2,z+1/2
6 -x,y+1/2,-z+1/2
7 -x+1/2,y+1/2,z
8 x+1/2,y+1/2,-z

_cell_length_a                   9.0513(10)
_cell_length_b                   9.0440(9)
_cell_length_c                   36.226(3)
_cell_angle_alpha                90
_cell_angle_beta                 90
_cell_angle_gamma                90
_cell_volume                     2965.4(5)

loop_
_twin_individual_id
_twin_individual_mass_fraction_refined
_twin_individual_twin_matrix_11
_twin_individual_twin_matrix_12
_twin_individual_twin_matrix_13
_twin_individual_twin_matrix_21
_twin_individual_twin_matrix_22
_twin_individual_twin_matrix_23
_twin_individual_twin_matrix_31
_twin_individual_twin_matrix_32
_twin_individual_twin_matrix_33
1 0.1(2) 1 0 0 0 1 0 0 0 1
2 0.605(5) 0 -1 0 -1 0 0 0 0 -1
3 0.3(2) -1 0 0 0 -1 0 0 0 1

_cell_formula_units_Z            4

_cell_measurement_reflns_used    3831
_cell_measurement_theta_min      2.25
_cell_measurement_theta_max      24.32
_cell_measurement_temperature    293
_cell_special_details            
; ?
;

_exptl_crystal_density_diffrn    2.9255
_exptl_crystal_density_meas      ?
_exptl_crystal_density_method    ?
_exptl_crystal_F_000             2264

_exptl_absorpt_coefficient_mu    8.972
_exptl_crystal_description       'rectangular plate'
_exptl_crystal_size_max          0.594
_exptl_crystal_size_mid          0.0404
_exptl_crystal_size_min          0.0395
_exptl_crystal_size_rad          ?
_exptl_crystal_colour            Red
_exptl_absorpt_process_details   X-SHAPE
_exptl_absorpt_correction_type   integration
_exptl_absorpt_correction_T_min  0.4327
_exptl_absorpt_correction_T_max  0.5584
loop_
_exptl_crystal_face_index_h
_exptl_crystal_face_index_k
_exptl_crystal_face_index_l
_exptl_crystal_face_perp_dist
? ? ? ?

#=======================================================================

# 7. EXPERIMENTAL DATA

_exptl_special_details           ?

_diffrn_ambient_temperature      293
_diffrn_measurement_device       '2-circle goniometer'
_diffrn_measurement_device_type  'STOE IPDS 2'
_diffrn_detector                 'image plate (34 cm diameter)'
_diffrn_detector_type            STOE
_diffrn_detector_area_resol_mean 6.67
_diffrn_source                   
'sealed X-ray tube, 12 x 0.4 mm long-fine focus'
_diffrn_source_voltage           40
_diffrn_source_current           30
_diffrn_source_power             1.20
_diffrn_radiation_type           'Mo K\a'
_diffrn_radiation_wavelength     0.71073
_diffrn_radiation_monochromator  'plane graphite'
_diffrn_radiation_polarisn_norm  0
_diffrn_radiation_collimation    '0.5 mm diameter, monocapillary'
_diffrn_measurement_method       'rotation method'
_diffrn_measurement_details      
; 180 frames, detector distance = 100 mm
;


_diffrn_reflns_number            13905
_diffrn_reflns_theta_min         2.25
_diffrn_reflns_theta_max         25.22
_diffrn_reflns_theta_full        29.22
_diffrn_measured_fraction_theta_max 0.99
_diffrn_measured_fraction_theta_full 0.99
_diffrn_reflns_av_R_equivalents  0.0822
_diffrn_reflns_av_unetI/netI     0.1211
_diffrn_reflns_limit_h_min       -11
_diffrn_reflns_limit_h_max       12
_diffrn_reflns_limit_k_min       -12
_diffrn_reflns_limit_k_max       12
_diffrn_reflns_limit_l_min       -49
_diffrn_reflns_limit_l_max       49
_diffrn_reflns_reduction_process ?

_diffrn_standards_number         ?
_diffrn_standards_interval_count ?
_diffrn_standards_interval_time  ?
_diffrn_standards_decay_%        ?
loop_
_diffrn_standard_refln_index_h
_diffrn_standard_refln_index_k
_diffrn_standard_refln_index_l
? ? ?

_diffrn_radiation_probe          X-ray

#=======================================================================

# 8. REFINEMENT DATA

_refine_special_details          
; Carbon and Nitrogen atoms were refined isotropically due to the 
  heavily disordered nature of the cations. The C-C and the C-N
  bond distances and the N-C-C and C-C-C bond angles were restrained to
  1.500(1) Angstrom and 108.00(1) degrees, respectively. The thermal
  parameters of the IPA molecules were restrained so that each cation
  has the same Uiso. The hydrogen atoms were not located for the IPA ions
  inside the perovskite cavity.
;

_reflns_number_total             4943
_reflns_number_gt                2011
_reflns_threshold_expression     I>2\s(I)

_refine_ls_structure_factor_coef Fsqd
_refine_ls_R_factor_gt           0.0884
_refine_ls_wR_factor_gt          0.1083
_refine_ls_R_factor_all          0.2001
_refine_ls_wR_factor_ref         0.1237
_refine_ls_goodness_of_fit_ref   1.38
_refine_ls_goodness_of_fit_gt    1.91
_refine_ls_restrained_S_gt       ?
_refine_ls_restrained_S_all      ?
_refine_ls_number_reflns         4943
_refine_ls_number_parameters     65
_refine_ls_number_restraints     11
_refine_ls_number_constraints    46
_refine_ls_weighting_scheme      sigma
_refine_ls_weighting_details     w=1/(\s^2^(I)+0.0004I^2^)
_refine_ls_hydrogen_treatment    constr
_refine_ls_shift/su_max          0.0365
_refine_ls_shift/su_mean         0.0053
_refine_diff_density_max         4.46
_refine_diff_density_min         -4.20
_refine_ls_extinction_method     none
_refine_ls_extinction_coef       ?
_refine_ls_abs_structure_details 
;  1391 of Friedel pairs used in the refinement
;
_refine_ls_abs_structure_Flack   ?
_refine_ls_abs_structure_Rogers  ?

loop_
_atom_type_symbol
_atom_type_scat_dispersion_real
_atom_type_scat_dispersion_imag
_atom_type_scat_source
C 0.0033 0.0016 'International Tables Vol C tables 4.2.6.8 and 6.1.1.1'
H 0.0000 0.0000 'International Tables Vol C tables 4.2.6.8 and 6.1.1.1'
I -0.4742 1.8119 'International Tables Vol C tables 4.2.6.8 and 6.1.1.1'
N 0.0061 0.0033 'International Tables Vol C tables 4.2.6.8 and 6.1.1.1'
Sn -0.6537 1.4246 'International Tables Vol C tables 4.2.6.8 and 6.1.1.1'

_computing_data_collection       'STOE X-AREA'
_computing_cell_refinement       'STOE X-AREA'
_computing_data_reduction        'STOE X-RED'
_computing_structure_solution    Superflip
_computing_structure_refinement  Jana2006
_computing_molecular_graphics    ?
_computing_publication_material  ?

loop_
_restr_distance_atom_site_label_1
_restr_distance_site_symmetry_1
_restr_distance_atom_site_label_2
_restr_distance_site_symmetry_2
_restr_distance_target
_restr_distance_target_weight_param
N1 . C1 . 1.5 0.001
C1 . C2 . 1.5 0.001
C1 . C3 . 1.5 0.001
N2 . C4 . 1.5 0.001
C4 . C5 . 1.5 0.001

loop_
_restr_angle_atom_site_label_1
_restr_angle_site_symmetry_1
_restr_angle_atom_site_label_2
_restr_angle_site_symmetry_2
_restr_angle_atom_site_label_3
_restr_angle_site_symmetry_3
_restr_angle_target
_restr_angle_target_weight_param
N1 . C1 . C2 . 108 0.01
N1 . C1 . C3 . 108 0.01
C2 . C1 . C3 . 108 0.01
N2 . C4 . C5 . 108 0.01
N2 . C4 . C5 2_555 108 0.01
C5 . C4 . C5 2_555 108 0.01

loop_
_restr_torsion_atom_site_label_1
_restr_torsion_site_symmetry_1
_restr_torsion_atom_site_label_2
_restr_torsion_site_symmetry_2
_restr_torsion_atom_site_label_3
_restr_torsion_site_symmetry_3
_restr_torsion_atom_site_label_4
_restr_torsion_site_symmetry_4
_restr_torsion_angle_target
_restr_torsion_weight_param
? ? ? ? ? ? ? ? ? ?

loop_
_restr_equal_distance_atom_site_label_1
_restr_equal_distance_site_symmetry_1
_restr_equal_distance_atom_site_label_2
_restr_equal_distance_site_symmetry_2
_restr_equal_distance_class_class_id
_restr_equal_distance_class_target_weight_param
? ? ? ? ? ?

loop_
_restr_equal_angle_atom_site_label_1
_restr_equal_angle_site_symmetry_1
_restr_equal_angle_atom_site_label_2
_restr_equal_angle_site_symmetry_2
_restr_equal_angle_atom_site_label_3
_restr_equal_angle_site_symmetry_3
_restr_equal_angle_class_class_id
_restr_equal_angle_class_target_weight_param
? ? ? ? ? ? ? ?

loop_
_restr_equal_torsion_atom_site_label_1
_restr_equal_torsion_site_symmetry_1
_restr_equal_torsion_atom_site_label_2
_restr_equal_torsion_site_symmetry_2
_restr_equal_torsion_atom_site_label_3
_restr_equal_torsion_site_symmetry_3
_restr_equal_torsion_atom_site_label_4
_restr_equal_torsion_site_symmetry_4
_restr_equal_torsion_class_class_id
_restr_equal_torsion_class_target_weight_param
? ? ? ? ? ? ? ? ? ?


#=======================================================================

# 9. ATOMIC COORDINATES AND DISPLACEMENT PARAMETERS

loop_
_atom_site_label
_atom_site_type_symbol
_atom_site_fract_x
_atom_site_fract_y
_atom_site_fract_z
_atom_site_adp_type
_atom_site_U_iso_or_equiv
_atom_site_site_symmetry_multiplicity
_atom_site_occupancy
_atom_site_calc_flag
_atom_site_refinement_flags
_atom_site_disorder_assembly
_atom_site_disorder_group
Sn1 Sn -0.0032(2) 0.1088(9) 0.09580(3) Uani 0.0828(8) 8 1 d . . .
I1 I -0.2527(9) 0.3588(8) 0.09123(6) Uani 0.1080(11) 8 1 d . . .
I2 I 0.2515(8) 0.3632(8) 0.10447(6) Uani 0.1017(10) 8 1 d . . .
I3 I 0 0.1150(15) 0 Uani 0.165(2) 4 1 d . . .
I4 I -0.0550(3) 0.1067(11) 0.17666(4) Uani 0.193(2) 8 1 d . . .
N1 N -0.016(3) 0.646(3) 0.1560(3) Uiso 0.137(5) 8 1 d . . .
N2 N 0 0.797(7) 0 Uiso 0.32(2) 4 1 d . . .
C3 C -0.111(3) 0.523(4) 0.2107(6) Uiso 0.137(5) 8 1 d . . .
C1 C -0.003(3) 0.637(2) 0.1972(3) Uiso 0.137(5) 8 1 d . . .
C5 C 0.034(9) 0.565(7) 0.0324(6) Uiso 0.32(2) 8 1 d . . .
C2 C 0.149(3) 0.583(5) 0.2063(7) Uiso 0.137(5) 8 1 d . . .
C4 C 0.0572(10) 0.642(7) -0.0037(10) Uiso 0.32(2) 8 0.5 d . . .
H1n1 H -0.075232 0.717894 0.150116 Uiso 0.1639 8 1 d . . .
H2n1 H 0.070343 0.661059 0.146412 Uiso 0.1639 8 1 d . . .
H3n1 H -0.052092 0.562867 0.147536 Uiso 0.1639 8 1 d . . .
H1c3 H -0.19581 0.521493 0.1947 Uiso 0.1639 8 1 d . . .
H2c3 H -0.06518 0.427355 0.210672 Uiso 0.1639 8 1 d . . .
H3c3 H -0.141873 0.547416 0.235311 Uiso 0.1639 8 1 d . . .
H1c1 H -0.021847 0.730937 0.208373 Uiso 0.1639 8 1 d . . .
H1c2 H 0.212891 0.666414 0.210563 Uiso 0.1639 8 1 d . . .
H2c2 H 0.146049 0.522607 0.228022 Uiso 0.1639 8 1 d . . .
H3c2 H 0.187192 0.526055 0.185995 Uiso 0.1639 8 1 d . . .

loop_
_atom_site_aniso_label
_atom_site_aniso_type_symbol
_atom_site_aniso_U_11
_atom_site_aniso_U_22
_atom_site_aniso_U_33
_atom_site_aniso_U_12
_atom_site_aniso_U_13
_atom_site_aniso_U_23
Sn1 Sn 0.0649(13) 0.1002(19) 0.0833(7) 0.0344(16) 0.0081(11) -0.024(2)
I1 I 0.0790(16) 0.089(2) 0.1560(16) 0.0257(12) 0.008(5) 0.003(5)
I2 I 0.0798(15) 0.081(2) 0.1444(16) -0.0105(12) 0.007(5) -0.018(4)
I3 I 0.171(4) 0.221(6) 0.1021(13) 0 0.033(3) 0
I4 I 0.1014(16) 0.413(6) 0.0640(8) 0.048(6) 0.0029(11) -0.007(7)

loop_
_jana_atom_site_ADP_C_label
_jana_atom_site_ADP_C_type_symbol
_jana_atom_site_ADP_C_111
_jana_atom_site_ADP_C_112
_jana_atom_site_ADP_C_113
_jana_atom_site_ADP_C_122
_jana_atom_site_ADP_C_123
_jana_atom_site_ADP_C_133
_jana_atom_site_ADP_C_222
_jana_atom_site_ADP_C_223
_jana_atom_site_ADP_C_233
_jana_atom_site_ADP_C_333
? ? ? ? ? ? ? ? ? ? ? ?

loop_
_jana_atom_site_ADP_D_label
_jana_atom_site_ADP_D_type_symbol
_jana_atom_site_ADP_D_1111
_jana_atom_site_ADP_D_1112
_jana_atom_site_ADP_D_1113
_jana_atom_site_ADP_D_1122
_jana_atom_site_ADP_D_1123
_jana_atom_site_ADP_D_1133
_jana_atom_site_ADP_D_1222
_jana_atom_site_ADP_D_1223
_jana_atom_site_ADP_D_1233
_jana_atom_site_ADP_D_1333
_jana_atom_site_ADP_D_2222
_jana_atom_site_ADP_D_2223
_jana_atom_site_ADP_D_2233
_jana_atom_site_ADP_D_2333
_jana_atom_site_ADP_D_3333
? ? ? ? ? ? ? ? ? ? ? ? ? ? ? ? ?

loop_
_jana_atom_site_ADP_E_label
_jana_atom_site_ADP_E_type_symbol
_jana_atom_site_ADP_E_11111
_jana_atom_site_ADP_E_11112
_jana_atom_site_ADP_E_11113
_jana_atom_site_ADP_E_11122
_jana_atom_site_ADP_E_11123
_jana_atom_site_ADP_E_11133
_jana_atom_site_ADP_E_11222
_jana_atom_site_ADP_E_11223
_jana_atom_site_ADP_E_11233
_jana_atom_site_ADP_E_11333
_jana_atom_site_ADP_E_12222
_jana_atom_site_ADP_E_12223
_jana_atom_site_ADP_E_12233
_jana_atom_site_ADP_E_12333
_jana_atom_site_ADP_E_13333
_jana_atom_site_ADP_E_22222
_jana_atom_site_ADP_E_22223
_jana_atom_site_ADP_E_22233
_jana_atom_site_ADP_E_22333
_jana_atom_site_ADP_E_23333
_jana_atom_site_ADP_E_33333
? ? ? ? ? ? ? ? ? ? ? ? ? ? ? ? ? ? ? ? ? ? ?

loop_
_jana_atom_site_ADP_F_label
_jana_atom_site_ADP_F_type_symbol
_jana_atom_site_ADP_F_111111
_jana_atom_site_ADP_F_111112
_jana_atom_site_ADP_F_111113
_jana_atom_site_ADP_F_111122
_jana_atom_site_ADP_F_111123
_jana_atom_site_ADP_F_111133
_jana_atom_site_ADP_F_111222
_jana_atom_site_ADP_F_111223
_jana_atom_site_ADP_F_111233
_jana_atom_site_ADP_F_111333
_jana_atom_site_ADP_F_112222
_jana_atom_site_ADP_F_112223
_jana_atom_site_ADP_F_112233
_jana_atom_site_ADP_F_112333
_jana_atom_site_ADP_F_113333
_jana_atom_site_ADP_F_122222
_jana_atom_site_ADP_F_122223
_jana_atom_site_ADP_F_122233
_jana_atom_site_ADP_F_122333
_jana_atom_site_ADP_F_123333
_jana_atom_site_ADP_F_133333
_jana_atom_site_ADP_F_222222
_jana_atom_site_ADP_F_222223
_jana_atom_site_ADP_F_222233
_jana_atom_site_ADP_F_222333
_jana_atom_site_ADP_F_223333
_jana_atom_site_ADP_F_233333
_jana_atom_site_ADP_F_333333
? ? ? ? ? ? ? ? ? ? ? ? ? ? ? ? ? ? ? ? ? ? ? ? ? ? ? ? ? ?


#=======================================================================

# 10. MOLECULAR GEOMETRY


loop_
_geom_bond_atom_site_label_1
_geom_bond_atom_site_label_2
_geom_bond_site_symmetry_1
_geom_bond_site_symmetry_2
_geom_bond_distance
_geom_bond_publ_flag
Sn1 I1 . . 3.200(10) ?
Sn1 I1 . 7_445 3.166(10) ?
Sn1 I2 . . 3.271(9) ?
Sn1 I2 . 7_545 3.198(9) ?
Sn1 I3 . . 3.4708(13) ?
Sn1 I4 . . 2.967(2) ?
I1 N1 . . 4.10(2) ?
I1 N1 . 7_445 3.69(2) ?
I1 N2 . 7_445 4.031(10) ?
I2 N1 . . 3.99(2) ?
I2 N1 . 7_545 3.62(2) ?
I3 N2 . 1_545 2.88(6) ?
I4 N1 . 1_545 4.25(3) ?
I4 N1 . 7_445 3.97(2) ?
N1 C1 . . 1.500(16) ?
N2 C4 . . 1.50(8) ?
N2 C4 . 2_555 1.50(8) ?
C3 C1 . . 1.50(4) ?
C1 C2 . . 1.50(3) ?
C5 C4 . . 1.50(6) ?
C5 C4 . 2_555 1.50(7) ?

loop_
_geom_angle_atom_site_label_1
_geom_angle_atom_site_label_2
_geom_angle_atom_site_label_3
_geom_angle_site_symmetry_1
_geom_angle_site_symmetry_2
_geom_angle_site_symmetry_3
_geom_angle
_geom_angle_publ_flag
I1 Sn1 I1 . . 7_445 90.5(2) ?
I1 Sn1 I2 . . . 90.3(3) ?
I1 Sn1 I2 . . 7_545 177.22(11) ?
I1 Sn1 I3 . . . 86.72(19) ?
I1 Sn1 I4 . . . 86.79(19) ?
I1 Sn1 I2 7_445 . . 177.39(11) ?
I1 Sn1 I2 7_445 . 7_545 90.4(3) ?
I1 Sn1 I3 7_445 . . 87.99(19) ?
I1 Sn1 I4 7_445 . . 86.37(19) ?
I2 Sn1 I2 . . 7_545 88.69(19) ?
I2 Sn1 I3 . . . 94.5(2) ?
I2 Sn1 I4 . . . 91.20(19) ?
I2 Sn1 I3 7_545 . . 95.94(19) ?
I2 Sn1 I4 7_545 . . 90.64(19) ?
I3 Sn1 I4 . . . 171.37(10) ?
Sn1 I1 Sn1 . . 7_455 174.01(9) ?
Sn1 I1 N1 . . . 92.8(4) ?
Sn1 I1 N1 . . 7_445 89.9(4) ?
Sn1 I1 N2 . . 7_445 109.7(7) ?
Sn1 I1 N1 7_455 . . 83.2(4) ?
Sn1 I1 N1 7_455 . 7_445 86.8(4) ?
Sn1 I1 N2 7_455 . 7_445 75.8(7) ?
N1 I1 N1 . . 7_445 105.2(4) ?
N1 I1 N2 . . 7_445 147.9(9) ?
N1 I1 N2 7_445 . 7_445 97.7(6) ?
Sn1 I2 Sn1 . . 7_555 168.83(9) ?
Sn1 I2 N1 . . . 93.8(4) ?
Sn1 I2 N1 . . 7_545 97.7(4) ?
Sn1 I2 N1 7_555 . . 92.0(4) ?
Sn1 I2 N1 7_555 . 7_545 87.5(4) ?
N1 I2 N1 . . 7_545 120.7(4) ?
Sn1 I3 Sn1 . . 2_555 178.2(5) ?
Sn1 I3 N2 . . 1_545 89.1(3) ?
Sn1 I3 N2 2_555 . 1_545 89.1(3) ?
Sn1 I4 N1 . . 1_545 79.6(3) ?
Sn1 I4 N1 . . 7_445 88.14(19) ?
N1 I4 N1 1_545 . 7_445 97.7(5) ?
I1 N1 I1 . . 7_455 70.8(3) ?
I1 N1 I2 . . . 69.1(4) ?
I1 N1 I2 . . 7_555 113.2(3) ?
I1 N1 I4 . . 1_565 132.7(6) ?
I1 N1 I4 . . 7_455 62.7(4) ?
I1 N1 C1 . . . 125.2(14) ?
I1 N1 I2 7_455 . . 112.5(3) ?
I1 N1 I2 7_455 . 7_555 76.3(4) ?
I1 N1 I4 7_455 . 1_565 63.4(4) ?
I1 N1 I4 7_455 . 7_455 67.2(4) ?
I1 N1 C1 7_455 . . 135.0(15) ?
I2 N1 I2 . . 7_555 72.8(4) ?
I2 N1 I4 . . 1_565 139.5(6) ?
I2 N1 I4 . . 7_455 128.8(7) ?
I2 N1 C1 . . . 112.5(14) ?
I2 N1 I4 7_555 . 1_565 67.2(4) ?
I2 N1 I4 7_555 . 7_455 142.5(7) ?
I2 N1 C1 7_555 . . 119.3(14) ?
I4 N1 I4 1_565 . 7_455 88.5(5) ?
I4 N1 C1 1_565 . . 83.4(12) ?
I4 N1 C1 7_455 . . 83.4(13) ?
I1 N2 I1 7_455 . 8_555 164.1(18) ?
I1 N2 I3 7_455 . 1_565 82.0(9) ?
I1 N2 C4 7_455 . . 113(2) ?
I1 N2 C4 7_455 . 2_555 82.2(13) ?
I1 N2 I3 8_555 . 1_565 82.0(9) ?
I1 N2 C4 8_555 . . 82.2(13) ?
I1 N2 C4 8_555 . 2_555 113(2) ?
I3 N2 C4 1_565 . . 159.1(13) ?
I3 N2 C4 1_565 . 2_555 159.1(13) ?
C4 N2 C4 . . 2_555 42(2) ?
N1 C1 C3 . . . 108.0(17) ?
N1 C1 C2 . . . 108.0(18) ?
C3 C1 C2 . . . 108(2) ?
C4 C5 C4 . . 2_555 41.8(15) ?
N2 C4 C5 . . . 108(3) ?
N2 C4 C5 . . 2_555 108(3) ?
C5 C4 C5 . . 2_555 108(4) ?

loop_
_geom_torsion_atom_site_label_1
_geom_torsion_atom_site_label_2
_geom_torsion_atom_site_label_3
_geom_torsion_atom_site_label_4
_geom_torsion_site_symmetry_1
_geom_torsion_site_symmetry_2
_geom_torsion_site_symmetry_3
_geom_torsion_site_symmetry_4
_geom_torsion
_geom_torsion_publ_flag
? ? ? ? ? ? ? ? ? ?

loop_
_geom_hbond_atom_site_label_D
_geom_hbond_atom_site_label_H
_geom_hbond_atom_site_label_A
_geom_hbond_site_symmetry_D
_geom_hbond_site_symmetry_H
_geom_hbond_site_symmetry_A
_geom_hbond_distance_DH
_geom_hbond_distance_HA
_geom_hbond_distance_DA
_geom_hbond_angle_DHA
_geom_hbond_publ_flag
? ? ? ? ? ? ? ? ? ? ?


#=======================================================================

# 11. STRUCTURE-FACTOR LIST

loop_
_refln_index_h
_refln_index_k
_refln_index_l
_refln_F_squared_calc
_refln_F_squared_meas
_refln_F_squared_sigma
_refln_observed_status
? ? ? ? ? ? ?

loop_
_twin_refln_datum_id
_twin_refln_individual_id
_twin_refln_index_h
_twin_refln_index_k
_twin_refln_index_l
_twin_refln_F_squared_calc
_twin_refln_F_squared_meas
_twin_refln_F_squared_sigma
_twin_refln_include_status
1 3 -2 0 0 39169.70 24315.90 1722.44 o
1 2 0 -2 0 39169.70 24315.90 1722.44 o
1 1 2 0 0 39169.70 24315.90 1722.44 o
2 3 2 0 0 39478.00 24038.90 1679.43 o
2 2 0 2 0 39478.00 24038.90 1679.43 o
2 1 -2 0 0 39478.00 24038.90 1679.43 o
3 3 -4 0 0 715650.00 727277.00 280.09 o
3 2 0 -4 0 715650.00 727277.00 280.09 o
3 1 4 0 0 715650.00 727277.00 280.09 o
4 3 -6 0 0 17752.60 17313.10 589.03 o
4 2 0 -6 0 17752.60 17313.10 589.03 o
4 1 6 0 0 17752.60 17313.10 589.03 o
5 3 -8 0 0 33113.70 31635.20 683.46 o
5 2 0 -8 0 33113.70 31635.20 683.46 o
5 1 8 0 0 33113.70 31635.20 683.46 o
6 3 -10 0 0 1305.11 1637.94 640.72 o
6 2 0 -10 0 1305.11 1637.94 640.72 o
6 1 10 0 0 1305.11 1637.94 640.72 o
7 3 -10 2 0 5295.50 4209.59 587.80 o
7 2 2 -10 0 5295.50 4209.59 587.80 o
7 1 10 -2 0 5295.50 4209.59 587.80 o
8 3 -8 2 0 5289.36 4067.16 572.27 o
8 2 2 -8 0 5289.36 4067.16 572.27 o
8 1 8 -2 0 5289.36 4067.16 572.27 o
9 3 6 -2 0 140664.00 141512.00 1280.91 o
9 2 -2 6 0 140664.00 141512.00 1280.91 o
9 1 -6 2 0 140664.00 141512.00 1280.91 o
10 3 -6 2 0 140316.00 142604.00 1279.22 o
10 2 2 -6 0 140316.00 142604.00 1279.22 o
10 1 6 -2 0 140316.00 142604.00 1279.22 o
11 3 4 -2 0 12805.40 13016.50 853.72 o
11 2 -2 4 0 12805.40 13016.50 853.72 o
11 1 -4 2 0 12805.40 13016.50 853.72 o
12 3 -4 2 0 12816.50 12051.10 873.28 o
12 2 2 -4 0 12816.50 12051.10 873.28 o
12 1 4 -2 0 12816.50 12051.10 873.28 o
13 3 0 -2 0 38109.40 23144.80 2111.18 o
13 2 -2 0 0 38109.40 23144.80 2111.18 o
13 1 0 2 0 38109.40 23144.80 2111.18 o
14 3 0 2 0 38236.50 23239.80 1766.38 o
14 2 2 0 0 38236.50 23239.80 1766.38 o
14 1 0 -2 0 38236.50 23239.80 1766.38 o
15 3 -4 -2 0 13060.30 13111.40 973.09 o
15 2 -2 -4 0 13060.30 13111.40 973.09 o
15 1 4 2 0 13060.30 13111.40 973.09 o
16 3 4 2 0 12561.60 12359.70 966.05 o
16 2 2 4 0 12561.60 12359.70 966.05 o
16 1 -4 -2 0 12561.60 12359.70 966.05 o
17 3 -6 -2 0 140294.00 137445.00 1075.89 o
17 2 -2 -6 0 140294.00 137445.00 1075.89 o
17 1 6 2 0 140294.00 137445.00 1075.89 o
18 3 -8 -2 0 5294.39 3679.43 628.01 o
18 2 -2 -8 0 5294.39 3679.43 628.01 o
18 1 8 2 0 5294.39 3679.43 628.01 o
19 3 -10 -2 0 5294.49 5143.29 617.53 o
19 2 -2 -10 0 5294.49 5143.29 617.53 o
19 1 10 2 0 5294.49 5143.29 617.53 o
20 3 -10 4 0 483.74 917.88 664.54 <
20 2 4 -10 0 483.74 917.88 664.54 <
20 1 10 -4 0 483.74 917.88 664.54 <
21 3 8 -4 0 19636.50 20889.70 830.56 o
21 2 -4 8 0 19636.50 20889.70 830.56 o
21 1 -8 4 0 19636.50 20889.70 830.56 o
22 3 -8 4 0 19607.70 18769.10 835.95 o
22 2 4 -8 0 19607.70 18769.10 835.95 o
22 1 8 -4 0 19607.70 18769.10 835.95 o
23 3 6 -4 0 7006.50 5159.12 865.78 o
23 2 -4 6 0 7006.50 5159.12 865.78 o
23 1 -6 4 0 7006.50 5159.12 865.78 o
24 3 -6 4 0 7062.77 4842.61 882.07 o
24 2 4 -6 0 7062.77 4842.61 882.07 o
24 1 6 -4 0 7062.77 4842.61 882.07 o
25 3 4 -4 0 253702.00 251903.00 1702.73 o
25 2 -4 4 0 253702.00 251903.00 1702.73 o
25 1 -4 4 0 253702.00 251903.00 1702.73 o
26 3 -4 4 0 253177.00 285176.00 5556.59 o
26 2 4 -4 0 253177.00 285176.00 5556.59 o
26 1 4 -4 0 253177.00 285176.00 5556.59 o
27 3 2 -4 0 13191.20 13111.40 934.00 o
27 2 -4 2 0 13191.20 13111.40 934.00 o
27 1 -2 4 0 13191.20 13111.40 934.00 o
28 3 -2 4 0 13676.80 12486.30 922.33 o
28 2 4 -2 0 13676.80 12486.30 922.33 o
28 1 2 -4 0 13676.80 12486.30 922.33 o
29 3 0 -4 0 722175.00 730070.00 2853.09 o
29 2 -4 0 0 722175.00 730070.00 2853.09 o
29 1 0 4 0 722175.00 730070.00 2853.09 o
30 3 0 4 0 721824.00 791276.00 15304.50 o
30 2 4 0 0 721824.00 791276.00 15304.50 o
30 1 0 -4 0 721824.00 791276.00 15304.50 o
31 3 -2 -4 0 13781.80 11497.20 1130.24 o
31 2 -4 -2 0 13781.80 11497.20 1130.24 o
31 1 2 4 0 13781.80 11497.20 1130.24 o
32 3 2 4 0 13086.20 14195.50 1088.21 o
32 2 4 2 0 13086.20 14195.50 1088.21 o
32 1 -2 -4 0 13086.20 14195.50 1088.21 o
33 3 -4 -4 0 252809.00 260448.00 1645.45 o
33 2 -4 -4 0 252809.00 260448.00 1645.45 o
33 1 4 4 0 252809.00 260448.00 1645.45 o
34 3 4 4 0 254070.00 265449.00 1441.81 o
34 2 4 4 0 254070.00 265449.00 1441.81 o
34 1 -4 -4 0 254070.00 265449.00 1441.81 o
35 3 -6 -4 0 7087.68 6646.71 989.90 o
35 2 -4 -6 0 7087.68 6646.71 989.90 o
35 1 6 4 0 7087.68 6646.71 989.90 o
36 3 6 4 0 6981.59 5016.69 929.00 o
36 2 4 6 0 6981.59 5016.69 929.00 o
36 1 -6 -4 0 6981.59 5016.69 929.00 o
37 3 -8 -4 0 19608.70 22820.40 611.18 o
37 2 -4 -8 0 19608.70 22820.40 611.18 o
37 1 8 4 0 19608.70 22820.40 611.18 o
38 3 -10 -4 0 484.35 1669.59 616.54 o
38 2 -4 -10 0 484.35 1669.59 616.54 o
38 1 10 4 0 484.35 1669.59 616.54 o
39 3 8 -6 0 804.74 530.16 791.33 <
39 2 -6 8 0 804.74 530.16 791.33 <
39 1 -8 6 0 804.74 530.16 791.33 <
40 3 -8 6 0 802.46 -79.13 799.25 <
40 2 6 -8 0 802.46 -79.13 799.25 <
40 1 8 -6 0 802.46 -79.13 799.25 <
41 3 6 -6 0 32810.70 34839.90 1002.47 o
41 2 -6 6 0 32810.70 34839.90 1002.47 o
41 1 -6 6 0 32810.70 34839.90 1002.47 o
42 3 -6 6 0 32799.70 36644.00 885.77 o
42 2 6 -6 0 32799.70 36644.00 885.77 o
42 1 6 -6 0 32799.70 36644.00 885.77 o
43 3 4 -6 0 6950.02 5404.41 881.09 o
43 2 -6 4 0 6950.02 5404.41 881.09 o
43 1 -4 6 0 6950.02 5404.41 881.09 o
44 3 -4 6 0 6976.97 4043.42 827.69 o
44 2 6 -4 0 6976.97 4043.42 827.69 o
44 1 4 -6 0 6976.97 4043.42 827.69 o
45 3 2 -6 0 142917.00 144590.00 1345.71 o
45 2 -6 2 0 142917.00 144590.00 1345.71 o
45 1 -2 6 0 142917.00 144590.00 1345.71 o
46 3 -2 6 0 143015.00 144764.00 1318.88 o
46 2 6 -2 0 143015.00 144764.00 1318.88 o
46 1 2 -6 0 143015.00 144764.00 1318.88 o
47 3 0 -6 0 18459.60 17882.80 999.79 o
47 2 -6 0 0 18459.60 17882.80 999.79 o
47 1 0 6 0 18459.60 17882.80 999.79 o
48 3 0 6 0 18427.90 17487.20 954.22 o
48 2 6 0 0 18427.90 17487.20 954.22 o
48 1 0 -6 0 18427.90 17487.20 954.22 o
49 3 -2 -6 0 142863.00 135031.00 1754.82 o
49 2 -6 -2 0 142863.00 135031.00 1754.82 o
49 1 2 6 0 142863.00 135031.00 1754.82 o
50 3 2 6 0 143069.00 159759.00 1287.60 o
50 2 6 2 0 143069.00 159759.00 1287.60 o
50 1 -2 -6 0 143069.00 159759.00 1287.60 o
51 3 -4 -6 0 7010.39 5420.24 991.64 o
51 2 -6 -4 0 7010.39 5420.24 991.64 o
51 1 4 6 0 7010.39 5420.24 991.64 o
52 3 4 6 0 6916.60 6425.16 918.82 o
52 2 6 4 0 6916.60 6425.16 918.82 o
52 1 -4 -6 0 6916.60 6425.16 918.82 o
53 3 -6 -6 0 32791.90 37609.30 1048.75 o
53 2 -6 -6 0 32791.90 37609.30 1048.75 o
53 1 6 6 0 32791.90 37609.30 1048.75 o
54 3 6 6 0 32818.40 36533.20 985.90 o
54 2 6 6 0 32818.40 36533.20 985.90 o
54 1 -6 -6 0 32818.40 36533.20 985.90 o
55 3 -8 -6 0 803.87 411.46 997.06 <
55 2 -6 -8 0 803.87 411.46 997.06 <
55 1 8 6 0 803.87 411.46 997.06 <
56 3 6 -8 0 751.53 538.07 870.44 <
56 2 -8 6 0 751.53 538.07 870.44 <
56 1 -6 8 0 751.53 538.07 870.44 <
57 3 -6 8 0 755.29 1566.73 838.42 <
57 2 8 -6 0 755.29 1566.73 838.42 <
57 1 6 -8 0 755.29 1566.73 838.42 <
58 3 4 -8 0 20623.20 22052.80 892.89 o
58 2 -8 4 0 20623.20 22052.80 892.89 o
58 1 -4 8 0 20623.20 22052.80 892.89 o
59 3 -4 8 0 20636.90 21277.40 866.26 o
59 2 8 -4 0 20636.90 21277.40 866.26 o
59 1 4 -8 0 20636.90 21277.40 866.26 o
60 3 2 -8 0 5483.63 4565.66 871.77 o
60 2 -8 2 0 5483.63 4565.66 871.77 o
60 1 -2 8 0 5483.63 4565.66 871.77 o
61 3 -2 8 0 5483.68 5008.77 871.15 o
61 2 8 -2 0 5483.68 5008.77 871.15 o
61 1 2 -8 0 5483.68 5008.77 871.15 o
62 3 0 -8 0 33730.80 28936.90 1043.04 o
62 2 -8 0 0 33730.80 28936.90 1043.04 o
62 1 0 8 0 33730.80 28936.90 1043.04 o
63 3 0 8 0 33763.60 31579.80 1000.17 o
63 2 8 0 0 33763.60 31579.80 1000.17 o
63 1 0 -8 0 33763.60 31579.80 1000.17 o
64 3 -2 -8 0 5495.81 5254.07 973.62 o
64 2 -8 -2 0 5495.81 5254.07 973.62 o
64 1 2 8 0 5495.81 5254.07 973.62 o
65 3 2 8 0 5471.50 6543.85 947.67 o
65 2 8 2 0 5471.50 6543.85 947.67 o
65 1 -2 -8 0 5471.50 6543.85 947.67 o
66 3 -4 -8 0 20625.50 19512.90 1050.12 o
66 2 -8 -4 0 20625.50 19512.90 1050.12 o
66 1 4 8 0 20625.50 19512.90 1050.12 o
67 3 4 8 0 20634.60 23041.90 1094.82 o
67 2 8 4 0 20634.60 23041.90 1094.82 o
67 1 -4 -8 0 20634.60 23041.90 1094.82 o
68 3 -6 -8 0 754.93 2231.40 1059.66 o
68 2 -8 -6 0 754.93 2231.40 1059.66 o
68 1 6 8 0 754.93 2231.40 1059.66 o
69 3 6 8 0 751.89 1099.87 814.90 <
69 2 8 6 0 751.89 1099.87 814.90 <
69 1 -6 -8 0 751.89 1099.87 814.90 <
70 3 4 -10 0 423.24 -7.91 989.11 <
70 2 -10 4 0 423.24 -7.91 989.11 <
70 1 -4 10 0 423.24 -7.91 989.11 <
71 3 -4 10 0 424.39 189.91 917.90 <
71 2 10 -4 0 424.39 189.91 917.90 <
71 1 4 -10 0 424.39 189.91 917.90 <
72 3 2 -10 0 5796.11 4961.30 927.05 o
72 2 -10 2 0 5796.11 4961.30 927.05 o
72 1 -2 10 0 5796.11 4961.30 927.05 o
73 3 -2 10 0 5796.71 5072.08 887.39 o
73 2 10 -2 0 5796.71 5072.08 887.39 o
73 1 2 -10 0 5796.71 5072.08 887.39 o
74 3 0 -10 0 1312.32 -822.93 878.24 <
74 2 -10 0 0 1312.32 -822.93 878.24 <
74 1 0 10 0 1312.32 -822.93 878.24 <
75 3 0 10 0 1311.46 1914.89 965.07 <
75 2 10 0 0 1311.46 1914.89 965.07 <
75 1 0 -10 0 1311.46 1914.89 965.07 <
76 3 -2 -10 0 5793.66 4304.54 904.16 o
76 2 -10 -2 0 5793.66 4304.54 904.16 o
76 1 2 10 0 5793.66 4304.54 904.16 o
77 3 2 10 0 5799.16 6314.38 1043.68 o
77 2 10 2 0 5799.16 6314.38 1043.68 o
77 1 -2 -10 0 5799.16 6314.38 1043.68 o
78 3 -4 -10 0 424.73 1891.15 1051.88 <
78 2 -10 -4 0 424.73 1891.15 1051.88 <
78 1 4 10 0 424.73 1891.15 1051.88 <
79 3 4 10 0 422.91 577.63 1012.81 <
79 2 10 4 0 422.91 577.63 1012.81 <
79 1 -4 -10 0 422.91 577.63 1012.81 <
80 3 -10 1 1 2.45 356.07 419.32 <
80 1 10 -1 1 2.45 356.07 419.32 <
81 3 -9 1 1 637.08 538.07 419.41 <
81 2 1 -9 -1 637.08 538.07 419.41 <
81 1 9 -1 1 637.08 538.07 419.41 <
82 3 -8 1 1 239.38 -94.95 395.64 <
82 1 8 -1 1 239.38 -94.95 395.64 <
83 3 -7 1 1 6926.60 6860.36 403.85 o
83 2 1 -7 -1 6926.60 6860.36 403.85 o
83 1 7 -1 1 6926.60 6860.36 403.85 o
84 3 6 -1 1 2849.88 1946.54 697.10 o
84 1 -6 1 1 2849.88 1946.54 697.10 o
85 3 -6 1 1 2833.38 2144.36 451.99 o
85 1 6 -1 1 2833.38 2144.36 451.99 o
86 3 5 -1 1 25868.20 26230.80 629.02 o
86 2 -1 5 -1 25868.20 26230.80 629.02 o
86 1 -5 1 1 25868.20 26230.80 629.02 o
87 3 -5 1 1 25913.80 26697.60 632.25 o
87 2 1 -5 -1 25913.80 26697.60 632.25 o
87 1 5 -1 1 25913.80 26697.60 632.25 o
88 3 4 -1 1 10517.80 9250.01 567.60 o
88 1 -4 1 1 10517.80 9250.01 567.60 o
89 3 -4 1 1 10515.80 9795.99 683.32 o
89 1 4 -1 1 10515.80 9795.99 683.32 o
90 3 3 -1 1 136171.00 142390.00 1009.70 o
90 2 -1 3 -1 136171.00 142390.00 1009.70 o
90 1 -3 1 1 136171.00 142390.00 1009.70 o
91 3 -3 1 1 135920.00 127989.00 1407.19 o
91 2 1 -3 -1 135920.00 127989.00 1407.19 o
91 1 3 -1 1 135920.00 127989.00 1407.19 o
92 3 2 -1 1 11906.60 14440.80 963.78 o
92 1 -2 1 1 11906.60 14440.80 963.78 o
93 3 -2 1 1 11968.90 14155.90 1005.07 o
93 1 2 -1 1 11968.90 14155.90 1005.07 o
94 3 1 -1 1 245236.00 203429.00 2986.29 o
94 2 -1 1 -1 245236.00 203429.00 2986.29 o
94 1 -1 1 1 245236.00 203429.00 2986.29 o
95 3 -1 1 1 245780.00 207797.00 2960.39 o
95 2 1 -1 -1 245780.00 207797.00 2960.39 o
95 1 1 -1 1 245780.00 207797.00 2960.39 o
96 3 -1 -1 1 246162.00 185863.00 3437.58 o
96 2 -1 -1 -1 246162.00 185863.00 3437.58 o
96 1 1 1 1 246162.00 185863.00 3437.58 o
97 3 1 1 1 244854.00 195635.00 3369.35 o
97 2 1 1 -1 244854.00 195635.00 3369.35 o
97 1 -1 -1 1 244854.00 195635.00 3369.35 o
98 3 -2 -1 1 11906.60 12351.80 1106.48 o
98 1 2 1 1 11906.60 12351.80 1106.48 o
99 3 2 1 1 11968.90 12177.70 1020.08 o
99 1 -2 -1 1 11968.90 12177.70 1020.08 o
100 3 -3 -1 1 136153.00 123566.00 1354.99 o
100 2 -1 -3 -1 136153.00 123566.00 1354.99 o
100 1 3 1 1 136153.00 123566.00 1354.99 o
101 3 3 1 1 135938.00 123945.00 1905.88 o
101 2 1 3 -1 135938.00 123945.00 1905.88 o
101 1 -3 -1 1 135938.00 123945.00 1905.88 o
102 3 -4 -1 1 10517.80 9321.23 528.15 o
102 1 4 1 1 10517.80 9321.23 528.15 o
103 3 -5 -1 1 25931.80 24830.20 474.80 o
103 2 -1 -5 -1 25931.80 24830.20 474.80 o
103 1 5 1 1 25931.80 24830.20 474.80 o
104 3 -6 -1 1 2849.89 1685.42 373.63 o
104 1 6 1 1 2849.89 1685.42 373.63 o
105 3 -7 -1 1 6939.83 6013.69 423.08 o
105 2 -1 -7 -1 6939.83 6013.69 423.08 o
105 1 7 1 1 6939.83 6013.69 423.08 o
106 3 -8 -1 1 242.58 94.95 379.83 <
106 1 8 1 1 242.58 94.95 379.83 <
107 3 -9 -1 1 633.96 807.10 395.55 o
107 2 -1 -9 -1 633.96 807.10 395.55 o
107 1 9 1 1 633.96 807.10 395.55 o
108 3 -10 -1 1 2.38 577.63 427.15 <
108 1 10 1 1 2.38 577.63 427.15 <
109 3 -10 3 1 11.59 751.71 411.22 <
109 1 10 -3 1 11.59 751.71 411.22 <
110 3 -9 3 1 1831.91 2001.93 490.41 o
110 2 3 -9 -1 1831.91 2001.93 490.41 o
110 1 9 -3 1 1831.91 2001.93 490.41 o
111 3 8 -3 1 52.36 1440.12 545.32 o
111 1 -8 3 1 52.36 1440.12 545.32 o
112 3 -8 3 1 50.66 617.20 545.86 <
112 1 8 -3 1 50.66 617.20 545.86 <
113 3 7 -3 1 1699.58 1891.15 601.21 o
113 2 -3 7 -1 1699.58 1891.15 601.21 o
113 1 -7 3 1 1699.58 1891.15 601.21 o
114 3 -7 3 1 1706.89 2231.40 616.73 o
114 2 3 -7 -1 1706.89 2231.40 616.73 o
114 1 7 -3 1 1706.89 2231.40 616.73 o
115 3 6 -3 1 1049.48 1353.08 522.05 o
115 1 -6 3 1 1049.48 1353.08 522.05 o
116 3 -6 3 1 1029.83 815.01 538.16 <
116 1 6 -3 1 1029.83 815.01 538.16 <
117 3 5 -3 1 28294.60 29324.70 628.39 o
117 2 -3 5 -1 28294.60 29324.70 628.39 o
117 1 -5 3 1 28294.60 29324.70 628.39 o
118 3 -5 3 1 28373.90 30638.20 636.95 o
118 2 3 -5 -1 28373.90 30638.20 636.95 o
118 1 5 -3 1 28373.90 30638.20 636.95 o
119 3 4 -3 1 2075.76 2176.01 514.22 o
119 1 -4 3 1 2075.76 2176.01 514.22 o
120 3 -4 3 1 2062.95 2524.17 529.60 o
120 1 4 -3 1 2062.95 2524.17 529.60 o
121 3 3 -3 1 52688.50 49209.40 826.18 o
121 2 -3 3 -1 52688.50 49209.40 826.18 o
121 1 -3 3 1 52688.50 49209.40 826.18 o
122 3 -3 3 1 52804.60 52532.80 788.22 o
122 2 3 -3 -1 52804.60 52532.80 788.22 o
122 1 3 -3 1 52804.60 52532.80 788.22 o
123 3 2 -3 1 3820.36 2832.77 673.82 o
123 1 -2 3 1 3820.36 2832.77 673.82 o
124 3 -2 3 1 3852.85 3323.36 681.22 o
124 1 2 -3 1 3852.85 3323.36 681.22 o
125 3 1 -3 1 139197.00 125987.00 1519.45 o
125 2 -3 1 -1 139197.00 125987.00 1519.45 o
125 1 -1 3 1 139197.00 125987.00 1519.45 o
126 3 -1 3 1 139769.00 125512.00 1530.84 o
126 2 3 -1 -1 139769.00 125512.00 1530.84 o
126 1 1 -3 1 139769.00 125512.00 1530.84 o
127 3 -1 -3 1 139762.00 123858.00 1673.35 o
127 2 -3 -1 -1 139762.00 123858.00 1673.35 o
127 1 1 3 1 139762.00 123858.00 1673.35 o
128 3 1 3 1 139205.00 132792.00 1506.98 o
128 2 3 1 -1 139205.00 132792.00 1506.98 o
128 1 -1 -3 1 139205.00 132792.00 1506.98 o
129 3 -2 -3 1 3820.35 3260.05 768.21 o
129 1 2 3 1 3820.35 3260.05 768.21 o
130 3 2 3 1 3852.84 2650.77 650.35 o
130 1 -2 -3 1 3852.84 2650.77 650.35 o
131 3 -3 -3 1 52886.00 47816.80 988.10 o
131 2 -3 -3 -1 52886.00 47816.80 988.10 o
131 1 3 3 1 52886.00 47816.80 988.10 o
132 3 3 3 1 52607.10 46677.30 969.16 o
132 2 3 3 -1 52607.10 46677.30 969.16 o
132 1 -3 -3 1 52607.10 46677.30 969.16 o
133 3 -4 -3 1 2075.77 1994.01 633.09 o
133 1 4 3 1 2075.77 1994.01 633.09 o
134 3 4 3 1 2062.95 2049.40 617.21 o
134 1 -4 -3 1 2062.95 2049.40 617.21 o
135 3 -5 -3 1 28421.90 29846.90 704.39 o
135 2 -3 -5 -1 28421.90 29846.90 704.39 o
135 1 5 3 1 28421.90 29846.90 704.39 o
136 3 5 3 1 28246.60 30938.90 730.68 o
136 2 3 5 -1 28246.60 30938.90 730.68 o
136 1 -5 -3 1 28246.60 30938.90 730.68 o
137 3 -6 -3 1 1049.48 1194.83 490.50 o
137 1 6 3 1 1049.48 1194.83 490.50 o
138 3 -7 -3 1 1704.88 2120.62 403.01 o
138 2 -3 -7 -1 1704.88 2120.62 403.01 o
138 1 7 3 1 1704.88 2120.62 403.01 o
139 3 -8 -3 1 52.36 -23.74 419.38 <
139 1 8 3 1 52.36 -23.74 419.38 <
140 3 -9 -3 1 1835.10 1756.63 395.73 o
140 2 -3 -9 -1 1835.10 1756.63 395.73 o
140 1 9 3 1 1835.10 1756.63 395.73 o
141 3 -10 -3 1 11.88 482.68 419.28 <
141 1 10 3 1 11.88 482.68 419.28 <
142 3 9 -5 1 77.11 585.54 601.28 <
142 2 -5 9 -1 77.11 585.54 601.28 <
142 1 -9 5 1 77.11 585.54 601.28 <
143 3 -9 5 1 76.91 696.32 601.23 <
143 2 5 -9 -1 76.91 696.32 601.23 <
143 1 9 -5 1 76.91 696.32 601.23 <
144 3 8 -5 1 125.95 775.45 577.46 <
144 1 -8 5 1 125.95 775.45 577.46 <
145 3 -8 5 1 123.61 569.72 585.46 <
145 1 8 -5 1 123.61 569.72 585.46 <
146 3 7 -5 1 5580.45 6361.85 527.75 o
146 2 -5 7 -1 5580.45 6361.85 527.75 o
146 1 -7 5 1 5580.45 6361.85 527.75 o
147 3 -7 5 1 5588.79 5586.40 577.64 o
147 2 5 -7 -1 5588.79 5586.40 577.64 o
147 1 7 -5 1 5588.79 5586.40 577.64 o
148 3 6 -5 1 152.34 -569.72 561.69 <
148 1 -6 5 1 152.34 -569.72 561.69 <
149 3 -6 5 1 149.46 -174.08 538.06 <
149 1 6 -5 1 149.46 -174.08 538.06 <
150 3 5 -5 1 2902.52 4225.41 543.53 o
150 2 -5 5 -1 2902.52 4225.41 543.53 o
150 1 -5 5 1 2902.52 4225.41 543.53 o
151 3 -5 5 1 2906.19 3782.30 560.35 o
151 2 5 -5 -1 2906.19 3782.30 560.35 o
151 1 5 -5 1 2906.19 3782.30 560.35 o
152 3 4 -5 1 465.94 878.32 506.26 <
152 1 -4 5 1 465.94 878.32 506.26 <
153 3 -4 5 1 461.74 870.40 514.17 <
153 1 4 -5 1 461.74 870.40 514.17 <
154 3 3 -5 1 29340.80 27884.50 665.61 o
154 2 -5 3 -1 29340.80 27884.50 665.61 o
154 1 -3 5 1 29340.80 27884.50 665.61 o
155 3 -3 5 1 29404.60 27180.30 658.66 o
155 2 5 -3 -1 29404.60 27180.30 658.66 o
155 1 3 -5 1 29404.60 27180.30 658.66 o
156 3 2 -5 1 305.91 688.41 561.70 <
156 1 -2 5 1 305.91 688.41 561.70 <
157 3 -2 5 1 312.15 712.15 593.35 <
157 1 2 -5 1 312.15 712.15 593.35 <
158 3 1 -5 1 27101.40 26935.00 753.30 o
158 2 -5 1 -1 27101.40 26935.00 753.30 o
158 1 -1 5 1 27101.40 26935.00 753.30 o
159 3 -1 5 1 27118.80 26950.80 721.74 o
159 2 5 -1 -1 27118.80 26950.80 721.74 o
159 1 1 -5 1 27118.80 26950.80 721.74 o
160 3 -1 -5 1 27145.00 26602.70 843.36 o
160 2 -5 -1 -1 27145.00 26602.70 843.36 o
160 1 1 5 1 27145.00 26602.70 843.36 o
161 3 1 5 1 27075.20 26840.10 832.87 o
161 2 5 1 -1 27075.20 26840.10 832.87 o
161 1 -1 -5 1 27075.20 26840.10 832.87 o
162 3 -2 -5 1 305.92 205.73 688.42 <
162 1 2 5 1 305.92 205.73 688.42 <
163 3 2 5 1 312.15 340.25 672.58 <
163 1 -2 -5 1 312.15 340.25 672.58 <
164 3 -3 -5 1 29457.00 29403.80 791.80 o
164 2 -5 -3 -1 29457.00 29403.80 791.80 o
164 1 3 5 1 29457.00 29403.80 791.80 o
165 3 3 5 1 29288.30 31698.50 733.02 o
165 2 5 3 -1 29288.30 31698.50 733.02 o
165 1 -3 -5 1 29288.30 31698.50 733.02 o
166 3 -4 -5 1 465.93 126.60 728.00 <
166 1 4 5 1 465.93 126.60 728.00 <
167 3 4 5 1 461.74 -561.81 656.67 <
167 1 -4 -5 1 461.74 -561.81 656.67 <
168 3 -5 -5 1 2908.77 3900.99 583.93 o
168 2 -5 -5 -1 2908.77 3900.99 583.93 o
168 1 5 5 1 2908.77 3900.99 583.93 o
169 3 5 5 1 2899.95 3228.40 585.08 o
169 2 5 5 -1 2899.95 3228.40 585.08 o
169 1 -5 -5 1 2899.95 3228.40 585.08 o
170 3 -6 -5 1 152.34 -174.08 617.19 <
170 1 6 5 1 152.34 -174.08 617.19 <
171 3 6 5 1 149.46 134.52 553.89 <
171 1 -6 -5 1 149.46 134.52 553.89 <
172 3 -7 -5 1 5594.96 6021.61 663.66 o
172 2 -5 -7 -1 5594.96 6021.61 663.66 o
172 1 7 5 1 5594.96 6021.61 663.66 o
173 3 7 5 1 5574.28 6939.49 962.91 o
173 2 5 7 -1 5574.28 6939.49 962.91 o
173 1 -7 -5 1 5574.28 6939.49 962.91 o
174 3 -8 -5 1 125.95 -94.95 451.02 <
174 1 8 5 1 125.95 -94.95 451.02 <
175 3 -9 -5 1 75.96 1163.17 450.51 o
175 2 -5 -9 -1 75.96 1163.17 450.51 o
175 1 9 5 1 75.96 1163.17 450.51 o
176 3 8 -7 1 60.72 838.75 624.91 <
176 1 -8 7 1 60.72 838.75 624.91 <
177 3 -8 7 1 61.32 886.23 569.48 <
177 1 8 -7 1 61.32 886.23 569.48 <
178 3 7 -7 1 95.43 925.79 561.55 <
178 2 -7 7 -1 95.43 925.79 561.55 <
178 1 -7 7 1 95.43 925.79 561.55 <
179 3 -7 7 1 94.17 1527.16 561.09 o
179 2 7 -7 -1 94.17 1527.16 561.09 o
179 1 7 -7 1 94.17 1527.16 561.09 o
180 3 6 -7 1 114.14 -482.68 609.21 <
180 1 -6 7 1 114.14 -482.68 609.21 <
181 3 -6 7 1 112.69 -957.44 593.17 <
181 1 6 -7 1 112.69 -957.44 593.17 <
182 3 5 -7 1 5878.27 6686.28 583.18 o
182 2 -7 5 -1 5878.27 6686.28 583.18 o
182 1 -5 7 1 5878.27 6686.28 583.18 o
183 3 -5 7 1 5887.25 6100.73 553.27 o
183 2 7 -5 -1 5887.25 6100.73 553.27 o
183 1 5 -7 1 5887.25 6100.73 553.27 o
184 3 4 -7 1 82.51 775.45 553.71 <
184 1 -4 7 1 82.51 775.45 553.71 <
185 3 -4 7 1 83.21 1234.39 537.58 o
185 1 4 -7 1 83.21 1234.39 537.58 o
186 3 3 -7 1 1877.64 1788.28 648.91 o
186 2 -7 3 -1 1877.64 1788.28 648.91 o
186 1 -3 7 1 1877.64 1788.28 648.91 o
187 3 -3 7 1 1870.60 2911.89 584.33 o
187 2 7 -3 -1 1870.60 2911.89 584.33 o
187 1 3 -7 1 1870.60 2911.89 584.33 o
188 3 2 -7 1 106.88 340.25 577.60 <
188 1 -2 7 1 106.88 340.25 577.60 <
189 3 -2 7 1 106.63 300.68 569.70 <
189 1 2 -7 1 106.63 300.68 569.70 <
190 3 1 -7 1 7322.73 7113.57 657.37 o
190 2 -7 1 -1 7322.73 7113.57 657.37 o
190 1 -1 7 1 7322.73 7113.57 657.37 o
191 3 -1 7 1 7341.84 7374.69 640.83 o
191 2 7 -1 -1 7341.84 7374.69 640.83 o
191 1 1 -7 1 7341.84 7374.69 640.83 o
192 3 -1 -7 1 7354.79 6338.12 604.37 o
192 2 -7 -1 -1 7354.79 6338.12 604.37 o
192 1 1 7 1 7354.79 6338.12 604.37 o
193 3 1 7 1 7309.78 7976.06 662.59 o
193 2 7 1 -1 7309.78 7976.06 662.59 o
193 1 -1 -7 1 7309.78 7976.06 662.59 o
194 3 -2 -7 1 106.88 316.51 625.09 <
194 1 2 7 1 106.88 316.51 625.09 <
195 3 2 7 1 106.63 577.63 553.80 <
195 1 -2 -7 1 106.63 577.63 553.80 <
196 3 -3 -7 1 1872.78 2025.67 569.58 o
196 2 -7 -3 -1 1872.78 2025.67 569.58 o
196 1 3 7 1 1872.78 2025.67 569.58 o
197 3 3 7 1 1875.46 1701.24 538.22 o
197 2 7 3 -1 1875.46 1701.24 538.22 o
197 1 -3 -7 1 1875.46 1701.24 538.22 o
198 3 -4 -7 1 82.51 569.72 625.02 <
198 1 4 7 1 82.51 569.72 625.02 <
199 3 4 7 1 83.21 158.26 522.24 <
199 1 -4 -7 1 83.21 158.26 522.24 <
200 3 -5 -7 1 5893.23 5934.57 656.66 o
200 2 -7 -5 -1 5893.23 5934.57 656.66 o
200 1 5 7 1 5893.23 5934.57 656.66 o
201 3 5 7 1 5872.29 7256.00 668.85 o
201 2 7 5 -1 5872.29 7256.00 668.85 o
201 1 -5 -7 1 5872.29 7256.00 668.85 o
202 3 -6 -7 1 114.14 545.98 617.12 <
202 1 6 7 1 114.14 545.98 617.12 <
203 3 6 7 1 112.69 63.30 617.20 <
203 1 -6 -7 1 112.69 63.30 617.20 <
204 3 -7 -7 1 93.28 601.37 664.58 <
204 2 -7 -7 -1 93.28 601.37 664.58 <
204 1 7 7 1 93.28 601.37 664.58 <
205 3 7 7 1 96.31 411.46 617.15 <
205 2 7 7 -1 96.31 411.46 617.15 <
205 1 -7 -7 1 96.31 411.46 617.15 <
206 3 -8 -7 1 60.72 561.81 712.07 <
206 1 8 7 1 60.72 561.81 712.07 <
207 3 8 7 1 61.32 1938.62 1075.52 <
207 1 -8 -7 1 61.32 1938.62 1075.52 <
208 3 6 -9 1 25.90 1424.30 648.29 o
208 1 -6 9 1 25.90 1424.30 648.29 o
209 3 -6 9 1 26.21 997.01 616.91 <
209 1 6 -9 1 26.21 997.01 616.91 <
210 3 5 -9 1 106.36 1044.48 616.90 <
210 2 -9 5 -1 106.36 1044.48 616.90 <
210 1 -5 9 1 106.36 1044.48 616.90 <
211 3 -5 9 1 104.52 704.23 624.98 <
211 2 9 -5 -1 104.52 704.23 624.98 <
211 1 5 -9 1 104.52 704.23 624.98 <
212 3 4 -9 1 34.32 743.80 609.13 <
212 1 -4 9 1 34.32 743.80 609.13 <
213 3 -4 9 1 34.04 245.29 609.27 <
213 1 4 -9 1 34.04 245.29 609.27 <
214 3 3 -9 1 2108.77 2073.14 585.58 o
214 2 -9 3 -1 2108.77 2073.14 585.58 o
214 1 -3 9 1 2108.77 2073.14 585.58 o
215 3 -3 9 1 2114.42 1962.36 601.51 o
215 2 9 -3 -1 2114.42 1962.36 601.51 o
215 1 3 -9 1 2114.42 1962.36 601.51 o
216 3 2 -9 1 14.69 174.08 585.53 <
216 1 -2 9 1 14.69 174.08 585.53 <
217 3 -2 9 1 14.99 -648.85 545.84 <
217 1 2 -9 1 14.99 -648.85 545.84 <
218 3 1 -9 1 759.14 917.88 593.40 <
218 2 -9 1 -1 759.14 917.88 593.40 <
218 1 -1 9 1 759.14 917.88 593.40 <
219 3 -1 9 1 750.87 -39.56 530.24 <
219 2 9 -1 -1 750.87 -39.56 530.24 <
219 1 1 -9 1 750.87 -39.56 530.24 <
220 3 -1 -9 1 751.57 1020.75 664.57 <
220 2 -9 -1 -1 751.57 1020.75 664.57 <
220 1 1 9 1 751.57 1020.75 664.57 <
221 3 1 9 1 758.43 997.01 640.84 <
221 2 9 1 -1 758.43 997.01 640.84 <
221 1 -1 -9 1 758.43 997.01 640.84 <
222 3 -2 -9 1 14.69 1804.11 655.88 o
222 1 2 9 1 14.69 1804.11 655.88 o
223 3 2 9 1 14.99 878.32 624.89 <
223 1 -2 -9 1 14.99 878.32 624.89 <
224 3 -3 -9 1 2116.49 2096.88 704.25 o
224 2 -9 -3 -1 2116.49 2096.88 704.25 o
224 1 3 9 1 2116.49 2096.88 704.25 o
225 3 3 9 1 2106.71 2975.20 703.35 o
225 2 9 3 -1 2106.71 2975.20 703.35 o
225 1 -3 -9 1 2106.71 2975.20 703.35 o
226 3 -4 -9 1 34.32 490.59 704.18 <
226 1 4 9 1 34.32 490.59 704.18 <
227 3 4 9 1 34.04 957.44 624.85 <
227 1 -4 -9 1 34.04 957.44 624.85 <
228 3 -5 -9 1 104.05 775.45 696.18 <
228 2 -9 -5 -1 104.05 775.45 696.18 <
228 1 5 9 1 104.05 775.45 696.18 <
229 3 5 9 1 106.84 197.82 577.62 <
229 2 9 5 -1 106.84 197.82 577.62 <
229 1 -5 -9 1 106.84 197.82 577.62 <
230 3 -6 -9 1 25.90 767.54 751.58 <
230 1 6 9 1 25.90 767.54 751.58 <
231 3 6 9 1 26.21 229.47 625.09 <
231 1 -6 -9 1 26.21 229.47 625.09 <
232 3 -1 0 2 3000.85 2619.12 1361.20 <
232 1 1 0 2 3000.85 2619.12 1361.20 <
233 3 1 0 2 3000.85 2809.03 1495.61 <
233 1 -1 0 2 3000.85 2809.03 1495.61 <
234 3 -2 0 2 27028.80 29878.60 926.09 o
234 2 0 -2 -2 27028.80 29878.60 926.09 o
234 1 2 0 2 27028.80 29878.60 926.09 o
235 3 2 0 2 26668.50 28517.60 1557.92 o
235 2 0 2 -2 26668.50 28517.60 1557.92 o
235 1 -2 0 2 26668.50 28517.60 1557.92 o
236 3 -3 0 2 22777.90 19797.70 719.66 o
236 1 3 0 2 22777.90 19797.70 719.66 o
237 3 3 0 2 22777.90 21079.60 1124.45 o
237 1 -3 0 2 22777.90 21079.60 1124.45 o
238 3 -4 0 2 77359.00 72235.50 882.66 o
238 2 0 -4 -2 77359.00 72235.50 882.66 o
238 1 4 0 2 77359.00 72235.50 882.66 o
239 3 4 0 2 77349.60 78011.90 1350.86 o
239 2 0 4 -2 77349.60 78011.90 1350.86 o
239 1 -4 0 2 77349.60 78011.90 1350.86 o
240 3 -5 0 2 8053.29 7699.11 413.25 o
240 1 5 0 2 8053.29 7699.11 413.25 o
241 3 -6 0 2 666.57 451.03 371.98 <
241 2 0 -6 -2 666.57 451.03 371.98 <
241 1 6 0 2 666.57 451.03 371.98 <
242 3 -7 0 2 1397.74 1226.48 395.79 o
242 1 7 0 2 1397.74 1226.48 395.79 o
243 3 -8 0 2 6917.73 8363.78 404.01 o
243 2 0 -8 -2 6917.73 8363.78 404.01 o
243 1 8 0 2 6917.73 8363.78 404.01 o
244 3 -9 0 2 24.89 -261.12 411.43 <
244 1 9 0 2 24.89 -261.12 411.43 <
245 3 -10 0 2 77.82 356.07 435.16 <
245 2 0 -10 -2 77.82 356.07 435.16 <
245 1 10 0 2 77.82 356.07 435.16 <
246 3 -10 2 2 947.97 1345.17 403.23 o
246 2 2 -10 -2 947.97 1345.17 403.23 o
246 1 10 -2 2 947.97 1345.17 403.23 o
247 3 -9 2 2 59.06 815.01 419.11 <
247 1 9 -2 2 59.06 815.01 419.11 <
248 3 -8 2 2 254.15 696.32 427.14 <
248 2 2 -8 -2 254.15 696.32 427.14 <
248 1 8 -2 2 254.15 696.32 427.14 <
249 3 7 -2 2 613.68 1313.52 798.94 <
249 1 -7 2 2 613.68 1313.52 798.94 <
250 3 -7 2 2 613.59 783.36 593.40 <
250 1 7 -2 2 613.59 783.36 593.40 <
251 3 6 -2 2 20911.60 24315.90 582.10 o
251 2 -2 6 -2 20911.60 24315.90 582.10 o
251 1 -6 2 2 20911.60 24315.90 582.10 o
252 3 -6 2 2 20980.80 23303.10 626.97 o
252 2 2 -6 -2 20980.80 23303.10 626.97 o
252 1 6 -2 2 20980.80 23303.10 626.97 o
253 3 5 -2 2 5301.05 5238.24 538.23 o
253 1 -5 2 2 5301.05 5238.24 538.23 o
254 3 -5 2 2 5293.88 5214.51 554.09 o
254 1 5 -2 2 5293.88 5214.51 554.09 o
255 3 4 -2 2 1939.41 957.44 530.79 <
255 2 -2 4 -2 1939.41 957.44 530.79 <
255 1 -4 2 2 1939.41 957.44 530.79 <
256 3 -4 2 2 1869.93 989.09 570.25 <
256 2 2 -4 -2 1869.93 989.09 570.25 <
256 1 4 -2 2 1869.93 989.09 570.25 <
257 3 3 -2 2 7228.22 7469.64 679.80 o
257 1 -3 2 2 7228.22 7469.64 679.80 o
258 3 -3 2 2 7219.08 7437.99 735.30 o
258 1 3 -2 2 7219.08 7437.99 735.30 o
259 3 2 -2 2 98822.20 97224.00 1167.76 o
259 2 -2 2 -2 98822.20 97224.00 1167.76 o
259 1 -2 2 2 98822.20 97224.00 1167.76 o
260 3 -2 2 2 99055.10 92832.40 1248.90 o
260 2 2 -2 -2 99055.10 92832.40 1248.90 o
260 1 2 -2 2 99055.10 92832.40 1248.90 o
261 3 1 -2 2 2721.49 3299.62 933.19 o
261 1 -1 2 2 2721.49 3299.62 933.19 o
262 3 -1 2 2 2706.55 3180.93 941.21 o
262 1 1 -2 2 2706.55 3180.93 941.21 o
263 3 0 -2 2 21000.50 27813.30 1163.52 o
263 2 -2 0 -2 21000.50 27813.30 1163.52 o
263 1 0 2 2 21000.50 27813.30 1163.52 o
264 3 0 2 2 20852.00 30820.20 1273.17 o
264 2 2 0 -2 20852.00 30820.20 1273.17 o
264 1 0 -2 2 20852.00 30820.20 1273.17 o
265 3 -1 -2 2 2721.49 3679.43 1257.45 o
265 1 1 2 2 2721.49 3679.43 1257.45 o
266 3 1 2 2 2706.55 3196.75 1115.34 o
266 1 -1 -2 2 2706.55 3196.75 1115.34 o
267 3 -2 -2 2 99218.50 88749.50 1441.55 o
267 2 -2 -2 -2 99218.50 88749.50 1441.55 o
267 1 2 2 2 99218.50 88749.50 1441.55 o
268 3 2 2 2 98658.80 90664.40 1507.26 o
268 2 2 2 -2 98658.80 90664.40 1507.26 o
268 1 -2 -2 2 98658.80 90664.40 1507.26 o
269 3 -3 -2 2 7228.22 6100.73 706.99 o
269 1 3 2 2 7228.22 6100.73 706.99 o
270 3 3 2 2 7219.07 7311.39 759.39 o
270 1 -3 -2 2 7219.07 7311.39 759.39 o
271 3 -4 -2 2 1835.37 530.16 712.62 <
271 2 -2 -4 -2 1835.37 530.16 712.62 <
271 1 4 2 2 1835.37 530.16 712.62 <
272 3 4 2 2 1973.96 3552.83 900.64 o
272 2 2 4 -2 1973.96 3552.83 900.64 o
272 1 -4 -2 2 1973.96 3552.83 900.64 o
273 3 -5 -2 2 5301.07 5079.99 530.73 o
273 1 5 2 2 5301.07 5079.99 530.73 o
274 3 5 2 2 5293.87 4834.69 926.45 o
274 1 -5 -2 2 5293.87 4834.69 926.45 o
275 3 -6 -2 2 20996.40 24078.50 441.69 o
275 2 -2 -6 -2 20996.40 24078.50 441.69 o
275 1 6 2 2 20996.40 24078.50 441.69 o
276 3 -7 -2 2 613.68 767.54 387.65 <
276 1 7 2 2 613.68 767.54 387.65 <
277 3 -8 -2 2 253.59 356.07 395.62 <
277 2 -2 -8 -2 253.59 356.07 395.62 <
277 1 8 2 2 253.59 356.07 395.62 <
278 3 -9 -2 2 59.61 585.54 387.58 <
278 1 9 2 2 59.61 585.54 387.58 <
279 3 -10 -2 2 947.87 1519.25 410.97 o
279 2 -2 -10 -2 947.87 1519.25 410.97 o
279 1 10 2 2 947.87 1519.25 410.97 o
280 3 -10 4 2 28.48 553.89 522.14 <
280 2 4 -10 -2 28.48 553.89 522.14 <
280 1 10 -4 2 28.48 553.89 522.14 <
281 3 9 -4 2 154.25 933.71 775.27 <
281 1 -9 4 2 154.25 933.71 775.27 <
282 3 -9 4 2 154.36 490.59 593.40 <
282 1 9 -4 2 154.36 490.59 593.40 <
283 3 8 -4 2 2789.06 2761.55 577.67 o
283 2 -4 8 -2 2789.06 2761.55 577.67 o
283 1 -8 4 2 2789.06 2761.55 577.67 o
284 3 -8 4 2 2796.72 2642.86 554.09 o
284 2 4 -8 -2 2796.72 2642.86 554.09 o
284 1 8 -4 2 2796.72 2642.86 554.09 o
285 3 7 -4 2 317.42 838.75 506.23 <
285 1 -7 4 2 317.42 838.75 506.23 <
286 3 -7 4 2 316.55 989.09 529.90 <
286 1 7 -4 2 316.55 989.09 529.90 <
287 3 6 -4 2 475.41 815.01 601.26 <
287 2 -4 6 -2 475.41 815.01 601.26 <
287 1 -6 4 2 475.41 815.01 601.26 <
288 3 -6 4 2 462.00 -411.46 577.58 <
288 2 4 -6 -2 462.00 -411.46 577.58 <
288 1 6 -4 2 462.00 -411.46 577.58 <
289 3 5 -4 2 1225.51 395.64 522.53 <
289 1 -5 4 2 1225.51 395.64 522.53 <
290 3 -5 4 2 1229.68 759.63 514.55 <
290 1 5 -4 2 1229.68 759.63 514.55 <
291 3 4 -4 2 29899.10 34737.00 623.25 o
291 2 -4 4 -2 29899.10 34737.00 623.25 o
291 1 -4 4 2 29899.10 34737.00 623.25 o
292 3 -4 4 2 30086.50 32956.60 635.13 o
292 2 4 -4 -2 30086.50 32956.60 635.13 o
292 1 4 -4 2 30086.50 32956.60 635.13 o
293 3 3 -4 2 1260.42 1535.07 545.79 o
293 1 -3 4 2 1260.42 1535.07 545.79 o
294 3 -3 4 2 1248.58 514.33 538.34 <
294 1 3 -4 2 1248.58 514.33 538.34 <
295 3 2 -4 2 1719.16 1273.95 617.47 o
295 2 -4 2 -2 1719.16 1273.95 617.47 o
295 1 -2 4 2 1719.16 1273.95 617.47 o
296 3 -2 4 2 1678.25 1416.38 601.54 o
296 2 4 -2 -2 1678.25 1416.38 601.54 o
296 1 2 -4 2 1678.25 1416.38 601.54 o
297 3 1 -4 2 638.58 -174.08 720.09 <
297 1 -1 4 2 638.58 -174.08 720.09 <
298 3 -1 4 2 627.27 276.95 704.29 <
298 1 1 -4 2 627.27 276.95 704.29 <
299 3 0 -4 2 85022.60 75543.10 1267.92 o
299 2 -4 0 -2 85022.60 75543.10 1267.92 o
299 1 0 4 2 85022.60 75543.10 1267.92 o
300 3 0 4 2 85018.70 74522.30 1262.87 o
300 2 4 0 -2 85018.70 74522.30 1262.87 o
300 1 0 -4 2 85018.70 74522.30 1262.87 o
301 3 -1 -4 2 638.58 791.28 791.24 <
301 1 1 4 2 638.58 791.28 791.24 <
302 3 1 4 2 627.27 300.68 846.71 <
302 1 -1 -4 2 627.27 300.68 846.71 <
303 3 -2 -4 2 1635.41 1218.56 870.58 <
303 2 -4 -2 -2 1635.41 1218.56 870.58 <
303 1 2 4 2 1635.41 1218.56 870.58 <
304 3 2 4 2 1761.99 1297.69 704.49 <
304 2 4 2 -2 1761.99 1297.69 704.49 <
304 1 -2 -4 2 1761.99 1297.69 704.49 <
305 3 -3 -4 2 1260.41 949.53 767.65 <
305 1 3 4 2 1260.41 949.53 767.65 <
306 3 3 4 2 1248.57 799.19 672.75 <
306 1 -3 -4 2 1248.57 799.19 672.75 <
307 3 -4 -4 2 30217.90 33352.30 797.67 o
307 2 -4 -4 -2 30217.90 33352.30 797.67 o
307 1 4 4 2 30217.90 33352.30 797.67 o
308 3 4 4 2 29767.70 31777.60 696.52 o
308 2 4 4 -2 29767.70 31777.60 696.52 o
308 1 -4 -4 2 29767.70 31777.60 696.52 o
309 3 -5 -4 2 1225.51 458.94 601.61 <
309 1 5 4 2 1225.51 458.94 601.61 <
310 3 5 4 2 1229.68 71.21 569.97 <
310 1 -5 -4 2 1229.68 71.21 569.97 <
311 3 -6 -4 2 460.64 720.06 561.73 <
311 2 -4 -6 -2 460.64 720.06 561.73 <
311 1 6 4 2 460.64 720.06 561.73 <
312 3 6 4 2 476.77 269.03 538.10 <
312 2 4 6 -2 476.77 269.03 538.10 <
312 1 -6 -4 2 476.77 269.03 538.10 <
313 3 -7 -4 2 317.42 150.34 466.87 <
313 1 7 4 2 317.42 150.34 466.87 <
314 3 -8 -4 2 2795.48 3497.44 417.92 o
314 2 -4 -8 -2 2795.48 3497.44 417.92 o
314 1 8 4 2 2795.48 3497.44 417.92 o
315 3 -9 -4 2 154.25 498.50 435.12 <
315 1 9 4 2 154.25 498.50 435.12 <
316 3 -10 -4 2 28.59 640.93 442.95 <
316 2 -4 -10 -2 28.59 640.93 442.95 <
316 1 10 4 2 28.59 640.93 442.95 <
317 3 9 -6 2 116.53 1550.90 640.29 o
317 1 -9 6 2 116.53 1550.90 640.29 o
318 3 -9 6 2 116.73 1258.13 640.52 <
318 1 9 -6 2 116.73 1258.13 640.52 <
319 3 8 -6 2 56.23 395.64 569.67 <
319 2 -6 8 -2 56.23 395.64 569.67 <
319 1 -8 6 2 56.23 395.64 569.67 <
320 3 -8 6 2 56.53 997.01 577.33 <
320 2 6 -8 -2 56.53 997.01 577.33 <
320 1 8 -6 2 56.53 997.01 577.33 <
321 3 7 -6 2 384.42 189.91 553.92 <
321 1 -7 6 2 384.42 189.91 553.92 <
322 3 -7 6 2 385.34 815.01 577.50 <
322 1 7 -6 2 385.34 815.01 577.50 <
323 3 6 -6 2 3949.15 3718.99 593.85 o
323 2 -6 6 -2 3949.15 3718.99 593.85 o
323 1 -6 6 2 3949.15 3718.99 593.85 o
324 3 -6 6 2 3950.12 3956.38 553.88 o
324 2 6 -6 -2 3950.12 3956.38 553.88 o
324 1 6 -6 2 3950.12 3956.38 553.88 o
325 3 5 -6 2 253.71 577.63 553.82 <
325 1 -5 6 2 253.71 577.63 553.82 <
326 3 -5 6 2 252.29 -55.39 545.99 <
326 1 5 -6 2 252.29 -55.39 545.99 <
327 3 4 -6 2 382.73 458.94 585.53 <
327 2 -6 4 -2 382.73 458.94 585.53 <
327 1 -4 6 2 382.73 458.94 585.53 <
328 3 -4 6 2 385.51 593.46 561.75 <
328 2 6 -4 -2 385.51 593.46 561.75 <
328 1 4 -6 2 385.51 593.46 561.75 <
329 3 3 -6 2 657.03 379.81 577.69 <
329 1 -3 6 2 657.03 379.81 577.69 <
330 3 -3 6 2 655.57 -229.47 609.31 <
330 1 3 -6 2 655.57 -229.47 609.31 <
331 3 2 -6 2 23581.40 24648.20 710.40 o
331 2 -6 2 -2 23581.40 24648.20 710.40 o
331 1 -2 6 2 23581.40 24648.20 710.40 o
332 3 -2 6 2 23584.20 23208.10 660.31 o
332 2 6 -2 -2 23584.20 23208.10 660.31 o
332 1 2 -6 2 23584.20 23208.10 660.31 o
333 3 1 -6 2 133.30 -181.99 593.45 <
333 1 -1 6 2 133.30 -181.99 593.45 <
334 3 -1 6 2 134.77 261.12 664.66 <
334 1 1 -6 2 134.77 261.12 664.66 <
335 3 0 -6 2 538.99 458.94 656.77 <
335 2 -6 0 -2 538.99 458.94 656.77 <
335 1 0 6 2 538.99 458.94 656.77 <
336 3 0 6 2 542.29 822.93 593.36 <
336 2 6 0 -2 542.29 822.93 593.36 <
336 1 0 -6 2 542.29 822.93 593.36 <
337 3 -1 -6 2 133.30 181.99 672.58 <
337 1 1 6 2 133.30 181.99 672.58 <
338 3 1 6 2 134.77 664.67 609.17 <
338 1 -1 -6 2 134.77 664.67 609.17 <
339 3 -2 -6 2 23619.10 25732.30 837.91 o
339 2 -6 -2 -2 23619.10 25732.30 837.91 o
339 1 2 6 2 23619.10 25732.30 837.91 o
340 3 2 6 2 23546.50 26230.80 719.00 o
340 2 6 2 -2 23546.50 26230.80 719.00 o
340 1 -2 -6 2 23546.50 26230.80 719.00 o
341 3 -3 -6 2 657.03 71.21 680.56 <
341 1 3 6 2 657.03 71.21 680.56 <
342 3 3 6 2 655.57 134.52 633.09 <
342 1 -3 -6 2 655.57 134.52 633.09 <
343 3 -4 -6 2 379.43 205.73 648.86 <
343 2 -6 -4 -2 379.43 205.73 648.86 <
343 1 4 6 2 379.43 205.73 648.86 <
344 3 4 6 2 388.82 451.03 617.18 <
344 2 6 4 -2 388.82 451.03 617.18 <
344 1 -4 -6 2 388.82 451.03 617.18 <
345 3 -5 -6 2 253.71 102.87 617.21 <
345 1 5 6 2 253.71 102.87 617.21 <
346 3 5 6 2 252.29 126.60 514.34 <
346 1 -5 -6 2 252.29 126.60 514.34 <
347 3 -6 -6 2 3950.80 4589.40 750.72 o
347 2 -6 -6 -2 3950.80 4589.40 750.72 o
347 1 6 6 2 3950.80 4589.40 750.72 o
348 3 6 6 2 3948.47 5040.42 670.56 o
348 2 6 6 -2 3948.47 5040.42 670.56 o
348 1 -6 -6 2 3948.47 5040.42 670.56 o
349 3 -7 -6 2 384.42 617.20 656.71 <
349 1 7 6 2 384.42 617.20 656.71 <
350 3 7 6 2 385.34 -205.73 625.10 <
350 1 -7 -6 2 385.34 -205.73 625.10 <
351 3 -8 -6 2 56.48 -371.90 538.02 <
351 2 -6 -8 -2 56.48 -371.90 538.02 <
351 1 8 6 2 56.48 -371.90 538.02 <
352 3 8 6 2 56.28 1701.24 838.15 o
352 2 6 8 -2 56.28 1701.24 838.15 o
352 1 -8 -6 2 56.28 1701.24 838.15 o
353 3 -9 -6 2 116.53 1194.83 450.49 o
353 1 9 6 2 116.53 1194.83 450.49 o
354 3 7 -8 2 81.58 1661.68 608.50 o
354 1 -7 8 2 81.58 1661.68 608.50 o
355 3 -7 8 2 81.59 1495.51 584.88 o
355 1 7 -8 2 81.59 1495.51 584.88 o
356 3 6 -8 2 46.75 118.69 577.63 <
356 2 -8 6 -2 46.75 118.69 577.63 <
356 1 -6 8 2 46.75 118.69 577.63 <
357 3 -6 8 2 46.52 997.01 585.25 <
357 2 8 -6 -2 46.52 997.01 585.25 <
357 1 6 -8 2 46.52 997.01 585.25 <
358 3 5 -8 2 261.28 118.69 617.21 <
358 1 -5 8 2 261.28 118.69 617.21 <
359 3 -5 8 2 261.92 498.50 601.33 <
359 1 5 -8 2 261.92 498.50 601.33 <
360 3 4 -8 2 3181.75 2460.87 610.13 o
360 2 -8 4 -2 3181.75 2460.87 610.13 o
360 1 -4 8 2 3181.75 2460.87 610.13 o
361 3 -4 8 2 3176.09 3323.36 561.58 o
361 2 8 -4 -2 3176.09 3323.36 561.58 o
361 1 4 -8 2 3176.09 3323.36 561.58 o
362 3 3 -8 2 30.04 -79.13 577.63 <
362 1 -3 8 2 30.04 -79.13 577.63 <
363 3 -3 8 2 29.45 284.86 553.87 <
363 1 3 -8 2 29.45 284.86 553.87 <
364 3 2 -8 2 190.90 118.69 593.46 <
364 2 -8 2 -2 190.90 118.69 593.46 <
364 1 -2 8 2 190.90 118.69 593.46 <
365 3 -2 8 2 192.39 261.12 569.71 <
365 2 8 -2 -2 192.39 261.12 569.71 <
365 1 2 -8 2 192.39 261.12 569.71 <
366 3 1 -8 2 152.92 981.18 593.19 <
366 1 -1 8 2 152.92 981.18 593.19 <
367 3 -1 8 2 152.44 -126.60 617.19 <
367 1 1 -8 2 152.44 -126.60 617.19 <
368 3 0 -8 2 8532.03 8039.36 618.94 o
368 2 -8 0 -2 8532.03 8039.36 618.94 o
368 1 0 8 2 8532.03 8039.36 618.94 o
369 3 0 8 2 8523.67 8933.50 631.50 o
369 2 8 0 -2 8523.67 8933.50 631.50 o
369 1 0 -8 2 8523.67 8933.50 631.50 o
370 3 -1 -8 2 152.92 775.45 617.04 <
370 1 1 8 2 152.92 775.45 617.04 <
371 3 1 8 2 152.44 490.59 617.14 <
371 1 -1 -8 2 152.44 490.59 617.14 <
372 3 -2 -8 2 189.52 -150.34 601.36 <
372 2 -8 -2 -2 189.52 -150.34 601.36 <
372 1 2 8 2 189.52 -150.34 601.36 <
373 3 2 8 2 193.77 300.68 633.01 <
373 2 8 2 -2 193.77 300.68 633.01 <
373 1 -2 -8 2 193.77 300.68 633.01 <
374 3 -3 -8 2 30.04 189.91 640.92 <
374 1 3 8 2 30.04 189.91 640.92 <
375 3 3 8 2 29.45 -530.16 569.63 <
375 1 -3 -8 2 29.45 -530.16 569.63 <
376 3 -4 -8 2 3178.72 2991.02 680.72 o
376 2 -8 -4 -2 3178.72 2991.02 680.72 o
376 1 4 8 2 3178.72 2991.02 680.72 o
377 3 4 8 2 3179.10 4130.46 671.14 o
377 2 8 4 -2 3179.10 4130.46 671.14 o
377 1 -4 -8 2 3179.10 4130.46 671.14 o
378 3 -5 -8 2 261.28 466.85 617.16 <
378 1 5 8 2 261.28 466.85 617.16 <
379 3 5 8 2 261.92 -269.03 625.09 <
379 1 -5 -8 2 261.92 -269.03 625.09 <
380 3 -6 -8 2 46.63 838.75 704.06 <
380 2 -8 -6 -2 46.63 838.75 704.06 <
380 1 6 8 2 46.63 838.75 704.06 <
381 3 6 8 2 46.65 625.11 688.31 <
381 2 8 6 -2 46.65 625.11 688.31 <
381 1 -6 -8 2 46.65 625.11 688.31 <
382 3 -7 -8 2 81.58 1503.42 695.76 o
382 1 7 8 2 81.58 1503.42 695.76 o
383 3 7 8 2 81.59 -205.73 664.66 <
383 1 -7 -8 2 81.59 -205.73 664.66 <
384 3 4 -10 2 18.83 1044.48 664.38 <
384 2 -10 4 -2 18.83 1044.48 664.38 <
384 1 -4 10 2 18.83 1044.48 664.38 <
385 3 -4 10 2 19.28 799.19 640.76 <
385 2 10 -4 -2 19.28 799.19 640.76 <
385 1 4 -10 2 19.28 799.19 640.76 <
386 3 3 -10 2 62.81 158.26 656.75 <
386 1 -3 10 2 62.81 158.26 656.75 <
387 3 -3 10 2 63.06 522.24 617.12 <
387 1 3 -10 2 63.06 522.24 617.12 <
388 3 2 -10 2 1186.97 894.14 641.05 <
388 2 -10 2 -2 1186.97 894.14 641.05 <
388 1 -2 10 2 1186.97 894.14 641.05 <
389 3 -2 10 2 1185.79 830.84 601.52 <
389 2 10 -2 -2 1185.79 830.84 601.52 <
389 1 2 -10 2 1185.79 830.84 601.52 <
390 3 1 -10 2 20.60 332.34 609.25 <
390 1 -1 10 2 20.60 332.34 609.25 <
391 3 -1 10 2 20.55 332.34 617.16 <
391 1 1 -10 2 20.55 332.34 617.16 <
392 3 0 -10 2 61.11 458.94 617.14 <
392 2 -10 0 -2 61.11 458.94 617.14 <
392 1 0 10 2 61.11 458.94 617.14 <
393 3 0 10 2 61.48 830.84 593.26 <
393 2 10 0 -2 61.48 830.84 593.26 <
393 1 0 -10 2 61.48 830.84 593.26 <
394 3 -1 -10 2 20.60 411.46 648.80 <
394 1 1 10 2 20.60 411.46 648.80 <
395 3 1 10 2 20.55 1495.51 656.16 o
395 1 -1 -10 2 20.55 1495.51 656.16 o
396 3 -2 -10 2 1186.72 1360.99 656.67 o
396 2 -10 -2 -2 1186.72 1360.99 656.67 o
396 1 2 10 2 1186.72 1360.99 656.67 o
397 3 2 10 2 1186.04 1772.46 600.96 o
397 2 10 2 -2 1186.04 1772.46 600.96 o
397 1 -2 -10 2 1186.04 1772.46 600.96 o
398 3 -3 -10 2 62.81 664.67 696.22 <
398 1 3 10 2 62.81 664.67 696.22 <
399 3 3 10 2 63.06 704.23 617.06 <
399 1 -3 -10 2 63.06 704.23 617.06 <
400 3 -4 -10 2 19.10 150.34 688.40 <
400 2 -10 -4 -2 19.10 150.34 688.40 <
400 1 4 10 2 19.10 150.34 688.40 <
401 3 4 10 2 19.00 466.85 680.44 <
401 2 10 4 -2 19.00 466.85 680.44 <
401 1 -4 -10 2 19.00 466.85 680.44 <
402 3 -10 1 3 52.84 -403.55 419.30 <
402 1 10 -1 3 52.84 -403.55 419.30 <
403 3 -9 1 3 203.18 886.23 427.01 o
403 2 1 -9 -3 203.18 886.23 427.01 o
403 1 9 -1 3 203.18 886.23 427.01 o
404 3 -8 1 3 57.85 55.39 395.64 <
404 1 8 -1 3 57.85 55.39 395.64 <
405 3 -7 1 3 1083.91 1669.59 466.36 o
405 2 1 -7 -3 1083.91 1669.59 466.36 o
405 1 7 -1 3 1083.91 1669.59 466.36 o
406 3 6 -1 3 208.00 -672.58 719.94 <
406 1 -6 1 3 208.00 -672.58 719.94 <
407 3 -6 1 3 210.80 -166.17 435.19 <
407 1 6 -1 3 210.80 -166.17 435.19 <
408 3 5 -1 3 1306.89 538.07 744.02 <
408 2 -1 5 -3 1306.89 538.07 744.02 <
408 1 -5 1 3 1306.89 538.07 744.02 <
409 3 -5 1 3 1331.01 878.32 451.30 <
409 2 1 -5 -3 1331.01 878.32 451.30 <
409 1 5 -1 3 1331.01 878.32 451.30 <
410 3 4 -1 3 28.51 490.59 838.70 <
410 1 -4 1 3 28.51 490.59 838.70 <
411 3 -4 1 3 34.95 31.65 625.11 <
411 1 4 -1 3 34.95 31.65 625.11 <
412 3 3 -1 3 4646.86 4795.13 775.21 o
412 2 -1 3 -3 4646.86 4795.13 775.21 o
412 1 -3 1 3 4646.86 4795.13 775.21 o
413 3 -3 1 3 4821.39 4644.79 704.55 o
413 2 1 -3 -3 4821.39 4644.79 704.55 o
413 1 3 -1 3 4821.39 4644.79 704.55 o
414 3 2 -1 3 552.01 403.55 894.16 <
414 1 -2 1 3 552.01 403.55 894.16 <
415 3 -2 1 3 572.99 237.38 910.00 <
415 1 2 -1 3 572.99 237.38 910.00 <
416 3 1 -1 3 18954.60 28786.60 1220.33 o
416 2 -1 1 -3 18954.60 28786.60 1220.33 o
416 1 -1 1 3 18954.60 28786.60 1220.33 o
417 3 -1 1 3 18878.90 30021.00 1227.68 o
417 2 1 -1 -3 18878.90 30021.00 1227.68 o
417 1 1 -1 3 18878.90 30021.00 1227.68 o
418 3 -1 -1 3 18825.80 27014.10 1516.32 o
418 2 -1 -1 -3 18825.80 27014.10 1516.32 o
418 1 1 1 3 18825.80 27014.10 1516.32 o
419 3 1 1 3 19007.80 28929.00 1620.37 o
419 2 1 1 -3 19007.80 28929.00 1620.37 o
419 1 -1 -1 3 19007.80 28929.00 1620.37 o
420 3 -2 -1 3 552.02 134.52 815.05 <
420 1 2 1 3 552.02 134.52 815.05 <
421 3 2 1 3 572.98 767.54 1305.58 <
421 1 -2 -1 3 572.98 767.54 1305.58 <
422 3 -3 -1 3 4863.73 4684.35 601.75 o
422 2 -1 -3 -3 4863.73 4684.35 601.75 o
422 1 3 1 3 4863.73 4684.35 601.75 o
423 3 3 1 3 4604.54 4731.83 1131.38 o
423 2 1 3 -3 4604.54 4731.83 1131.38 o
423 1 -3 -1 3 4604.54 4731.83 1131.38 o
424 3 -4 -1 3 28.51 569.72 522.13 <
424 1 4 1 3 28.51 569.72 522.13 <
425 3 4 1 3 34.95 522.24 894.09 <
425 1 -4 -1 3 34.95 522.24 894.09 <
426 3 -5 -1 3 1320.19 720.06 403.92 <
426 2 -1 -5 -3 1320.19 720.06 403.92 <
426 1 5 1 3 1320.19 720.06 403.92 <
427 3 -6 -1 3 208.00 379.81 371.86 <
427 1 6 1 3 208.00 379.81 371.86 <
428 3 -7 -1 3 1080.94 1139.44 411.42 o
428 2 -1 -7 -3 1080.94 1139.44 411.42 o
428 1 7 1 3 1080.94 1139.44 411.42 o
429 3 -8 -1 3 58.37 490.59 395.54 <
429 1 8 1 3 58.37 490.59 395.54 <
430 3 -9 -1 3 203.00 878.32 395.34 o
430 2 -1 -9 -3 203.00 878.32 395.34 o
430 1 9 1 3 203.00 878.32 395.34 o
431 3 -10 -1 3 52.41 -253.21 411.43 <
431 1 10 1 3 52.41 -253.21 411.43 <
432 3 -10 3 3 144.51 759.63 395.41 <
432 1 10 -3 3 144.51 759.63 395.41 <
433 3 9 -3 3 55.97 -807.10 830.70 <
433 2 -3 9 -3 55.97 -807.10 830.70 <
433 1 -9 3 3 55.97 -807.10 830.70 <
434 3 -9 3 3 57.80 1250.22 497.96 o
434 2 3 -9 -3 57.80 1250.22 497.96 o
434 1 9 -3 3 57.80 1250.22 497.96 o
435 3 8 -3 3 335.11 -870.40 775.26 <
435 1 -8 3 3 335.11 -870.40 775.26 <
436 3 -8 3 3 337.15 181.99 561.82 <
436 1 8 -3 3 337.15 181.99 561.82 <
437 3 7 -3 3 314.76 1107.79 585.24 <
437 2 -3 7 -3 314.76 1107.79 585.24 <
437 1 -7 3 3 314.76 1107.79 585.24 <
438 3 -7 3 3 317.06 822.93 601.22 <
438 2 3 -7 -3 317.06 822.93 601.22 <
438 1 7 -3 3 317.06 822.93 601.22 <
439 3 6 -3 3 453.75 316.51 530.18 <
439 1 -6 3 3 453.75 316.51 530.18 <
440 3 -6 3 3 454.01 110.78 530.19 <
440 1 6 -3 3 454.01 110.78 530.19 <
441 3 5 -3 3 414.36 743.80 514.22 <
441 2 -3 5 -3 414.36 743.80 514.22 <
441 1 -5 3 3 414.36 743.80 514.22 <
442 3 -5 3 3 455.81 672.58 538.00 <
442 2 3 -5 -3 455.81 672.58 538.00 <
442 1 5 -3 3 455.81 672.58 538.00 <
443 3 4 -3 3 796.40 245.29 522.36 <
443 1 -4 3 3 796.40 245.29 522.36 <
444 3 -4 3 3 814.64 601.37 522.32 <
444 1 4 -3 3 814.64 601.37 522.32 <
445 3 3 -3 3 1297.53 474.77 562.10 <
445 2 -3 3 -3 1297.53 474.77 562.10 <
445 1 -3 3 3 1297.53 474.77 562.10 <
446 3 -3 3 3 1340.38 949.53 593.65 <
446 2 3 -3 -3 1340.38 949.53 593.65 <
446 1 3 -3 3 1340.38 949.53 593.65 <
447 3 2 -3 3 259.30 696.32 680.40 <
447 1 -2 3 3 259.30 696.32 680.40 <
448 3 -2 3 3 253.01 -189.91 680.49 <
448 1 2 -3 3 253.01 -189.91 680.49 <
449 3 1 -3 3 5130.70 4193.76 840.09 o
449 2 -3 1 -3 5130.70 4193.76 840.09 o
449 1 -1 3 3 5130.70 4193.76 840.09 o
450 3 -1 3 3 5143.95 4296.63 753.09 o
450 2 3 -1 -3 5143.95 4296.63 753.09 o
450 1 1 -3 3 5143.95 4296.63 753.09 o
451 3 -1 -3 3 5233.28 4391.58 832.10 o
451 2 -3 -1 -3 5233.28 4391.58 832.10 o
451 1 1 3 3 5233.28 4391.58 832.10 o
452 3 1 3 3 5041.37 4692.26 847.19 o
452 2 3 1 -3 5041.37 4692.26 847.19 o
452 1 -1 -3 3 5041.37 4692.26 847.19 o
453 3 -2 -3 3 259.30 743.80 846.58 <
453 1 2 3 3 259.30 743.80 846.58 <
454 3 2 3 3 253.01 545.98 894.10 <
454 1 -2 -3 3 253.01 545.98 894.10 <
455 3 -3 -3 3 1370.45 506.42 744.04 <
455 2 -3 -3 -3 1370.45 506.42 744.04 <
455 1 3 3 3 1370.45 506.42 744.04 <
456 3 3 3 3 1267.45 609.28 641.16 <
456 2 3 3 -3 1267.45 609.28 641.16 <
456 1 -3 -3 3 1267.45 609.28 641.16 <
457 3 -4 -3 3 796.40 -47.48 609.37 <
457 1 4 3 3 796.40 -47.48 609.37 <
458 3 4 3 3 814.64 403.55 585.65 <
458 1 -4 -3 3 814.64 403.55 585.65 <
459 3 -5 -3 3 449.68 403.55 569.73 <
459 2 -3 -5 -3 449.68 403.55 569.73 <
459 1 5 3 3 449.68 403.55 569.73 <
460 3 5 3 3 420.48 -166.17 783.37 <
460 2 3 5 -3 420.48 -166.17 783.37 <
460 1 -5 -3 3 420.48 -166.17 783.37 <
461 3 -6 -3 3 453.75 498.50 474.75 <
461 1 6 3 3 453.75 498.50 474.75 <
462 3 6 3 3 454.01 1068.22 822.76 <
462 1 -6 -3 3 454.01 1068.22 822.76 <
463 3 -7 -3 3 314.91 23.74 387.75 <
463 2 -3 -7 -3 314.91 23.74 387.75 <
463 1 7 3 3 314.91 23.74 387.75 <
464 3 -8 -3 3 335.11 -498.50 419.26 <
464 1 8 3 3 335.11 -498.50 419.26 <
465 3 -9 -3 3 57.85 356.07 403.50 <
465 2 -3 -9 -3 57.85 356.07 403.50 <
465 1 9 3 3 57.85 356.07 403.50 <
466 3 -10 -3 3 145.73 704.23 442.94 <
466 1 10 3 3 145.73 704.23 442.94 <
467 3 9 -5 3 10.82 1123.61 601.00 <
467 2 -5 9 -3 10.82 1123.61 601.00 <
467 1 -9 5 3 10.82 1123.61 601.00 <
468 3 -9 5 3 10.69 569.72 617.10 <
468 2 5 -9 -3 10.69 569.72 617.10 <
468 1 9 -5 3 10.69 569.72 617.10 <
469 3 8 -5 3 390.73 158.26 585.57 <
469 1 -8 5 3 390.73 158.26 585.57 <
470 3 -8 5 3 388.16 530.16 585.51 <
470 1 8 -5 3 388.16 530.16 585.51 <
471 3 7 -5 3 181.73 443.11 545.93 <
471 2 -5 7 -3 181.73 443.11 545.93 <
471 1 -7 5 3 181.73 443.11 545.93 <
472 3 -7 5 3 185.24 909.97 553.66 <
472 2 5 -7 -3 185.24 909.97 553.66 <
472 1 7 -5 3 185.24 909.97 553.66 <
473 3 6 -5 3 584.18 403.55 569.76 <
473 1 -6 5 3 584.18 403.55 569.76 <
474 3 -6 5 3 593.50 783.36 545.91 <
474 1 6 -5 3 593.50 783.36 545.91 <
475 3 5 -5 3 75.57 -213.64 577.61 <
475 2 -5 5 -3 75.57 -213.64 577.61 <
475 1 -5 5 3 75.57 -213.64 577.61 <
476 3 -5 5 3 74.05 -316.51 577.60 <
476 2 5 -5 -3 74.05 -316.51 577.60 <
476 1 5 -5 3 74.05 -316.51 577.60 <
477 3 4 -5 3 647.89 743.80 522.21 <
477 1 -4 5 3 647.89 743.80 522.21 <
478 3 -4 5 3 642.05 308.60 530.22 <
478 1 4 -5 3 642.05 308.60 530.22 <
479 3 3 -5 3 345.68 -205.73 593.45 <
479 2 -5 3 -3 345.68 -205.73 593.45 <
479 1 -3 5 3 345.68 -205.73 593.45 <
480 3 -3 5 3 316.32 292.77 553.90 <
480 2 5 -3 -3 316.32 292.77 553.90 <
480 1 3 -5 3 316.32 292.77 553.90 <
481 3 2 -5 3 318.27 166.17 569.73 <
481 1 -2 5 3 318.27 166.17 569.73 <
482 3 -2 5 3 313.75 158.26 601.38 <
482 1 2 -5 3 313.75 158.26 601.38 <
483 3 1 -5 3 1541.74 1258.13 593.63 o
483 2 -5 1 -3 1541.74 1258.13 593.63 o
483 1 -1 5 3 1541.74 1258.13 593.63 o
484 3 -1 5 3 1510.10 -189.91 625.38 <
484 2 5 -1 -3 1510.10 -189.91 625.38 <
484 1 1 -5 3 1510.10 -189.91 625.38 <
485 3 -1 -5 3 1515.57 1139.44 775.61 <
485 2 -5 -1 -3 1515.57 1139.44 775.61 <
485 1 1 5 3 1515.57 1139.44 775.61 <
486 3 1 5 3 1536.27 514.33 657.11 <
486 2 5 1 -3 1536.27 514.33 657.11 <
486 1 -1 -5 3 1536.27 514.33 657.11 <
487 3 -2 -5 3 318.27 -292.77 680.48 <
487 1 2 5 3 318.27 -292.77 680.48 <
488 3 2 5 3 313.75 411.46 696.31 <
488 1 -2 -5 3 313.75 411.46 696.31 <
489 3 -3 -5 3 330.86 474.77 720.04 <
489 2 -5 -3 -3 330.86 474.77 720.04 <
489 1 3 5 3 330.86 474.77 720.04 <
490 3 3 5 3 331.14 -229.47 672.58 <
490 2 5 3 -3 331.14 -229.47 672.58 <
490 1 -3 -5 3 331.14 -229.47 672.58 <
491 3 -4 -5 3 647.89 118.69 617.26 <
491 1 4 5 3 647.89 118.69 617.26 <
492 3 4 5 3 642.05 696.32 672.57 <
492 1 -4 -5 3 642.05 696.32 672.57 <
493 3 -5 -5 3 72.99 197.82 656.75 <
493 2 -5 -5 -3 72.99 197.82 656.75 <
493 1 5 5 3 72.99 197.82 656.75 <
494 3 5 5 3 76.64 300.68 538.04 <
494 2 5 5 -3 76.64 300.68 538.04 <
494 1 -5 -5 3 76.64 300.68 538.04 <
495 3 -6 -5 3 584.18 340.25 617.24 <
495 1 6 5 3 584.18 340.25 617.24 <
496 3 6 5 3 593.50 -189.91 593.48 <
496 1 -6 -5 3 593.50 -189.91 593.48 <
497 3 -7 -5 3 186.21 316.51 617.18 <
497 2 -5 -7 -3 186.21 316.51 617.18 <
497 1 7 5 3 186.21 316.51 617.18 <
498 3 7 5 3 180.77 387.73 838.73 <
498 2 5 7 -3 180.77 387.73 838.73 <
498 1 -7 -5 3 180.77 387.73 838.73 <
499 3 -8 -5 3 390.73 1392.64 537.54 o
499 1 8 5 3 390.73 1392.64 537.54 o
500 3 -9 -5 3 10.40 997.01 450.64 o
500 2 -5 -9 -3 10.40 997.01 450.64 o
500 1 9 5 3 10.40 997.01 450.64 o
501 3 8 -7 3 191.71 1970.28 639.91 o
501 1 -8 7 3 191.71 1970.28 639.91 o
502 3 -8 7 3 193.88 276.95 617.19 <
502 1 8 -7 3 193.88 276.95 617.19 <
503 3 7 -7 3 16.26 1527.16 568.99 o
503 2 -7 7 -3 16.26 1527.16 568.99 o
503 1 -7 7 3 16.26 1527.16 568.99 o
504 3 -7 7 3 16.00 71.21 569.72 <
504 2 7 -7 -3 16.00 71.21 569.72 <
504 1 7 -7 3 16.00 71.21 569.72 <
505 3 6 -7 3 386.26 949.53 617.01 <
505 1 -6 7 3 386.26 949.53 617.01 <
506 3 -6 7 3 383.32 -775.45 593.25 <
506 1 6 -7 3 383.32 -775.45 593.25 <
507 3 5 -7 3 161.10 1448.03 584.95 o
507 2 -7 5 -3 161.10 1448.03 584.95 o
507 1 -5 7 3 161.10 1448.03 584.95 o
508 3 -5 7 3 161.59 142.43 530.16 <
508 2 7 -5 -3 161.59 142.43 530.16 <
508 1 5 -7 3 161.59 142.43 530.16 <
509 3 4 -7 3 275.10 -189.91 569.71 <
509 1 -4 7 3 275.10 -189.91 569.71 <
510 3 -4 7 3 278.17 142.43 506.43 <
510 1 4 -7 3 278.17 142.43 506.43 <
511 3 3 -7 3 413.17 363.99 577.64 <
511 2 -7 3 -3 413.17 363.99 577.64 <
511 1 -3 7 3 413.17 363.99 577.64 <
512 3 -3 7 3 407.91 340.25 601.38 <
512 2 7 -3 -3 407.91 340.25 601.38 <
512 1 3 -7 3 407.91 340.25 601.38 <
513 3 2 -7 3 91.81 292.77 577.61 <
513 1 -2 7 3 91.81 292.77 577.61 <
514 3 -2 7 3 90.54 490.59 561.74 <
514 1 2 -7 3 90.54 490.59 561.74 <
515 3 1 -7 3 1508.00 672.58 633.35 <
515 2 -7 1 -3 1508.00 672.58 633.35 <
515 1 -1 7 3 1508.00 672.58 633.35 <
516 3 -1 7 3 1498.50 1424.30 609.33 o
516 2 7 -1 -3 1498.50 1424.30 609.33 o
516 1 1 -7 3 1498.50 1424.30 609.33 o
517 3 -1 -7 3 1500.81 1273.95 704.35 <
517 2 -7 -1 -3 1500.81 1273.95 704.35 <
517 1 1 7 3 1500.81 1273.95 704.35 <
518 3 1 7 3 1505.68 1115.70 577.85 <
518 2 7 1 -3 1505.68 1115.70 577.85 <
518 1 -1 -7 3 1505.68 1115.70 577.85 <
519 3 -2 -7 3 91.81 427.29 640.89 <
519 1 2 7 3 91.81 427.29 640.89 <
520 3 2 7 3 90.54 55.39 609.28 <
520 1 -2 -7 3 90.54 55.39 609.28 <
521 3 -3 -7 3 407.97 759.63 648.75 <
521 2 -7 -3 -3 407.97 759.63 648.75 <
521 1 3 7 3 407.97 759.63 648.75 <
522 3 3 7 3 413.11 997.01 585.33 <
522 2 7 3 -3 413.11 997.01 585.33 <
522 1 -3 -7 3 413.11 997.01 585.33 <
523 3 -4 -7 3 275.10 79.13 672.59 <
523 1 4 7 3 275.10 79.13 672.59 <
524 3 4 7 3 278.17 -55.39 593.47 <
524 1 -4 -7 3 278.17 -55.39 593.47 <
525 3 -5 -7 3 163.43 775.45 648.70 <
525 2 -7 -5 -3 163.43 775.45 648.70 <
525 1 5 7 3 163.43 775.45 648.70 <
526 3 5 7 3 159.26 577.63 561.72 <
526 2 7 5 -3 159.26 577.63 561.72 <
526 1 -5 -7 3 159.26 577.63 561.72 <
527 3 -6 -7 3 386.26 -94.95 664.68 <
527 1 6 7 3 386.26 -94.95 664.68 <
528 3 6 7 3 383.32 308.60 577.64 <
528 1 -6 -7 3 383.32 308.60 577.64 <
529 3 -7 -7 3 15.81 -830.84 672.40 <
529 2 -7 -7 -3 15.81 -830.84 672.40 <
529 1 7 7 3 15.81 -830.84 672.40 <
530 3 7 7 3 16.44 704.23 640.80 <
530 2 7 7 -3 16.44 704.23 640.80 <
530 1 -7 -7 3 16.44 704.23 640.80 <
531 3 -8 -7 3 191.71 735.89 759.52 <
531 1 8 7 3 191.71 735.89 759.52 <
532 3 8 7 3 193.88 -7.91 965.36 <
532 1 -8 -7 3 193.88 -7.91 965.36 <
533 3 6 -9 3 88.44 925.79 648.62 <
533 1 -6 9 3 88.44 925.79 648.62 <
534 3 -6 9 3 89.67 498.50 593.39 <
534 1 6 -9 3 89.67 498.50 593.39 <
535 3 5 -9 3 10.44 348.16 632.99 <
535 2 -9 5 -3 10.44 348.16 632.99 <
535 1 -5 9 3 10.44 348.16 632.99 <
536 3 -5 9 3 9.92 419.38 585.49 <
536 2 9 -5 -3 9.92 419.38 585.49 <
536 1 5 -9 3 9.92 419.38 585.49 <
537 3 4 -9 3 105.54 1052.40 616.89 <
537 1 -4 9 3 105.54 1052.40 616.89 <
538 3 -4 9 3 104.62 -102.87 593.45 <
538 1 4 -9 3 104.62 -102.87 593.45 <
539 3 3 -9 3 39.24 474.77 585.48 <
539 2 -9 3 -3 39.24 474.77 585.48 <
539 1 -3 9 3 39.24 474.77 585.48 <
540 3 -3 9 3 38.60 1273.95 561.30 o
540 2 9 -3 -3 38.60 1273.95 561.30 o
540 1 3 -9 3 38.60 1273.95 561.30 o
541 3 2 -9 3 20.58 696.32 561.65 <
541 1 -2 9 3 20.58 696.32 561.65 <
542 3 -2 9 3 20.67 775.45 545.79 <
542 1 2 -9 3 20.67 775.45 545.79 <
543 3 1 -9 3 288.27 538.07 625.06 <
543 2 -9 1 -3 288.27 538.07 625.06 <
543 1 -1 9 3 288.27 538.07 625.06 <
544 3 -1 9 3 287.65 87.04 553.91 <
544 2 9 -1 -3 287.65 87.04 553.91 <
544 1 1 -9 3 287.65 87.04 553.91 <
545 3 -1 -9 3 287.82 1155.26 577.28 <
545 2 -9 -1 -3 287.82 1155.26 577.28 <
545 1 1 9 3 287.82 1155.26 577.28 <
546 3 1 9 3 288.10 363.99 609.27 <
546 2 9 1 -3 288.10 363.99 609.27 <
546 1 -1 -9 3 288.10 363.99 609.27 <
547 3 -2 -9 3 20.58 -458.94 640.87 <
547 1 2 9 3 20.58 -458.94 640.87 <
548 3 2 9 3 20.67 1566.73 679.86 o
548 1 -2 -9 3 20.67 1566.73 679.86 o
549 3 -3 -9 3 39.37 15.83 712.15 <
549 2 -9 -3 -3 39.37 15.83 712.15 <
549 1 3 9 3 39.37 15.83 712.15 <
550 3 3 9 3 38.47 142.43 648.84 <
550 2 9 3 -3 38.47 142.43 648.84 <
550 1 -3 -9 3 38.47 142.43 648.84 <
551 3 -4 -9 3 105.54 640.93 672.49 <
551 1 4 9 3 105.54 640.93 672.49 <
552 3 4 9 3 104.62 664.67 696.22 <
552 1 -4 -9 3 104.62 664.67 696.22 <
553 3 -5 -9 3 9.75 815.01 704.07 <
553 2 -9 -5 -3 9.75 815.01 704.07 <
553 1 5 9 3 9.75 815.01 704.07 <
554 3 5 9 3 10.61 292.77 577.60 <
554 2 9 5 -3 10.61 292.77 577.60 <
554 1 -5 -9 3 10.61 292.77 577.60 <
555 3 -6 -9 3 88.44 316.51 688.39 <
555 1 6 9 3 88.44 316.51 688.39 <
556 3 6 9 3 89.67 1091.96 719.78 <
556 1 -6 -9 3 89.67 1091.96 719.78 <
557 3 0 0 4 481235.00 610833.00 11455.20 o
557 2 0 0 -4 481235.00 610833.00 11455.20 o
557 1 0 0 4 481235.00 610833.00 11455.20 o
558 3 -1 0 4 264.20 126.60 1368.91 <
558 1 1 0 4 264.20 126.60 1368.91 <
559 3 1 0 4 264.20 150.34 1337.26 <
559 1 -1 0 4 264.20 150.34 1337.26 <
560 3 -2 0 4 141122.00 165068.00 898.80 o
560 2 0 -2 -4 141122.00 165068.00 898.80 o
560 1 2 0 4 141122.00 165068.00 898.80 o
561 3 2 0 4 139986.00 155027.00 1118.60 o
561 2 0 2 -4 139986.00 155027.00 1118.60 o
561 1 -2 0 4 139986.00 155027.00 1118.60 o
562 3 -3 0 4 41105.50 35298.80 832.07 o
562 1 3 0 4 41105.50 35298.80 832.07 o
563 3 3 0 4 41105.50 35575.70 1224.91 o
563 1 -3 0 4 41105.50 35575.70 1224.91 o
564 3 -4 0 4 205649.00 219286.00 4335.55 o
564 2 0 -4 -4 205649.00 219286.00 4335.55 o
564 1 4 0 4 205649.00 219286.00 4335.55 o
565 3 4 0 4 206823.00 225007.00 1155.12 o
565 2 0 4 -4 206823.00 225007.00 1155.12 o
565 1 -4 0 4 206823.00 225007.00 1155.12 o
566 3 -5 0 4 4697.95 3062.24 454.50 o
566 1 5 0 4 4697.95 3062.24 454.50 o
567 3 5 0 4 4697.96 3046.41 761.71 o
567 1 -5 0 4 4697.96 3046.41 761.71 o
568 3 -6 0 4 18849.60 18650.40 437.48 o
568 2 0 -6 -4 18849.60 18650.40 437.48 o
568 1 6 0 4 18849.60 18650.40 437.48 o
569 3 -7 0 4 1526.59 1796.20 387.41 o
569 1 7 0 4 1526.59 1796.20 387.41 o
570 3 -8 0 4 17297.30 15991.70 448.15 o
570 2 0 -8 -4 17297.30 15991.70 448.15 o
570 1 8 0 4 17297.30 15991.70 448.15 o
571 3 -9 0 4 127.61 55.39 395.64 <
571 1 9 0 4 127.61 55.39 395.64 <
572 3 -10 0 4 694.53 1202.74 426.96 o
572 2 0 -10 -4 694.53 1202.74 426.96 o
572 1 10 0 4 694.53 1202.74 426.96 o
573 3 -10 2 4 3026.95 2998.93 427.34 o
573 2 2 -10 -4 3026.95 2998.93 427.34 o
573 1 10 -2 4 3026.95 2998.93 427.34 o
574 3 -9 2 4 137.12 -419.38 427.21 <
574 1 9 -2 4 137.12 -419.38 427.21 <
575 3 8 -2 4 3362.98 3995.94 742.94 o
575 2 -2 8 -4 3362.98 3995.94 742.94 o
575 1 -8 2 4 3362.98 3995.94 742.94 o
576 3 -8 2 4 3352.89 2524.17 460.29 o
576 2 2 -8 -4 3352.89 2524.17 460.29 o
576 1 8 -2 4 3352.89 2524.17 460.29 o
577 3 7 -2 4 380.27 -213.64 791.27 <
577 1 -7 2 4 380.27 -213.64 791.27 <
578 3 -7 2 4 383.60 150.34 498.53 <
578 1 7 -2 4 383.60 150.34 498.53 <
579 3 6 -2 4 58074.20 56441.70 1013.87 o
579 2 -2 6 -4 58074.20 56441.70 1013.87 o
579 1 -6 2 4 58074.20 56441.70 1013.87 o
580 3 -6 2 4 58030.50 55974.80 769.46 o
580 2 2 -6 -4 58030.50 55974.80 769.46 o
580 1 6 -2 4 58030.50 55974.80 769.46 o
581 3 5 -2 4 7916.31 7675.37 562.69 o
581 1 -5 2 4 7916.31 7675.37 562.69 o
582 3 -5 2 4 7933.52 6717.93 589.47 o
582 1 5 -2 4 7933.52 6717.93 589.47 o
583 3 4 -2 4 41977.70 44192.70 666.79 o
583 2 -2 4 -4 41977.70 44192.70 666.79 o
583 1 -4 2 4 41977.70 44192.70 666.79 o
584 3 -4 2 4 42247.80 42531.10 715.59 o
584 2 2 -4 -4 42247.80 42531.10 715.59 o
584 1 4 -2 4 42247.80 42531.10 715.59 o
585 3 3 -2 4 2907.77 1780.37 657.74 o
585 1 -3 2 4 2907.77 1780.37 657.74 o
586 3 -3 2 4 2886.23 1978.19 689.21 o
586 1 3 -2 4 2886.23 1978.19 689.21 o
587 3 2 -2 4 354258.00 382542.00 7494.11 o
587 2 -2 2 -4 354258.00 382542.00 7494.11 o
587 1 -2 2 4 354258.00 382542.00 7494.11 o
588 3 -2 2 4 354144.00 363006.00 1188.29 o
588 2 2 -2 -4 354144.00 363006.00 1188.29 o
588 1 2 -2 4 354144.00 363006.00 1188.29 o
589 3 1 -2 4 8673.24 9131.32 924.61 o
589 1 -1 2 4 8673.24 9131.32 924.61 o
590 3 -1 2 4 8607.54 9859.29 1025.59 o
590 1 1 -2 4 8607.54 9859.29 1025.59 o
591 3 0 -2 4 139705.00 155873.00 1326.79 o
591 2 -2 0 -4 139705.00 155873.00 1326.79 o
591 1 0 2 4 139705.00 155873.00 1326.79 o
592 3 0 2 4 139237.00 155739.00 1400.41 o
592 2 2 0 -4 139237.00 155739.00 1400.41 o
592 1 0 -2 4 139237.00 155739.00 1400.41 o
593 3 -1 -2 4 8673.23 9360.79 1225.11 o
593 1 1 2 4 8673.23 9360.79 1225.11 o
594 3 1 2 4 8607.54 9321.23 1185.46 o
594 1 -1 -2 4 8607.54 9321.23 1185.46 o
595 3 -2 -2 4 354065.00 349483.00 2343.10 o
595 2 -2 -2 -4 354065.00 349483.00 2343.10 o
595 1 2 2 4 354065.00 349483.00 2343.10 o
596 3 2 2 4 354337.00 363132.00 1725.34 o
596 2 2 2 -4 354337.00 363132.00 1725.34 o
596 1 -2 -2 4 354337.00 363132.00 1725.34 o
597 3 -3 -2 4 2907.76 2326.35 712.70 o
597 1 3 2 4 2907.76 2326.35 712.70 o
598 3 3 2 4 2886.24 2365.91 791.72 o
598 1 -3 -2 4 2886.24 2365.91 791.72 o
599 3 -4 -2 4 42138.80 42246.20 678.72 o
599 2 -2 -4 -4 42138.80 42246.20 678.72 o
599 1 4 2 4 42138.80 42246.20 678.72 o
600 3 4 2 4 42086.70 44335.20 1067.76 o
600 2 2 4 -4 42086.70 44335.20 1067.76 o
600 1 -4 -2 4 42086.70 44335.20 1067.76 o
601 3 -5 -2 4 7916.32 7145.22 517.28 o
601 1 5 2 4 7916.32 7145.22 517.28 o
602 3 5 2 4 7933.52 6251.08 834.51 o
602 1 -5 -2 4 7933.52 6251.08 834.51 o
603 3 -6 -2 4 58037.40 56797.80 669.79 o
603 2 -2 -6 -4 58037.40 56797.80 669.79 o
603 1 6 2 4 58037.40 56797.80 669.79 o
604 3 -7 -2 4 380.27 316.51 411.48 <
604 1 7 2 4 380.27 316.51 411.48 <
605 3 -8 -2 4 3355.26 3173.01 403.94 o
605 2 -2 -8 -4 3355.26 3173.01 403.94 o
605 1 8 2 4 3355.26 3173.01 403.94 o
606 3 -9 -2 4 135.26 451.03 387.65 <
606 1 9 2 4 135.26 451.03 387.65 <
607 3 -10 -2 4 3026.51 3101.80 458.80 o
607 2 -2 -10 -4 3026.51 3101.80 458.80 o
607 1 10 2 4 3026.51 3101.80 458.80 o
608 3 10 -4 4 270.29 2500.43 853.35 o
608 2 -4 10 -4 270.29 2500.43 853.35 o
608 1 -10 4 4 270.29 2500.43 853.35 o
609 3 -10 4 4 269.04 656.76 506.31 <
609 2 4 -10 -4 269.04 656.76 506.31 <
609 1 10 -4 4 269.04 656.76 506.31 <
610 3 9 -4 4 279.70 1345.17 759.25 <
610 1 -9 4 4 279.70 1345.17 759.25 <
611 3 -9 4 4 278.37 522.24 498.45 <
611 1 9 -4 4 278.37 522.24 498.45 <
612 3 8 -4 4 10050.60 9115.49 589.54 o
612 2 -4 8 -4 10050.60 9115.49 589.54 o
612 1 -8 4 4 10050.60 9115.49 589.54 o
613 3 -8 4 4 10052.30 9922.59 609.85 o
613 2 4 -8 -4 10052.30 9922.59 609.85 o
613 1 8 -4 4 10052.30 9922.59 609.85 o
614 3 7 -4 4 464.69 166.17 530.19 <
614 1 -7 4 4 464.69 166.17 530.19 <
615 3 -7 4 4 472.31 1305.60 545.56 o
615 1 7 -4 4 472.31 1305.60 545.56 o
616 3 6 -4 4 7053.98 8007.71 606.06 o
616 2 -4 6 -4 7053.98 8007.71 606.06 o
616 1 -6 4 4 7053.98 8007.71 606.06 o
617 3 -6 4 4 7038.55 7089.83 624.95 o
617 2 4 -6 -4 7038.55 7089.83 624.95 o
617 1 6 -4 4 7038.55 7089.83 624.95 o
618 3 5 -4 4 460.10 316.51 506.44 <
618 1 -5 4 4 460.10 316.51 506.44 <
619 3 -5 4 4 453.79 648.85 506.36 <
619 1 5 -4 4 453.79 648.85 506.36 <
620 3 4 -4 4 92186.20 90387.40 889.27 o
620 2 -4 4 -4 92186.20 90387.40 889.27 o
620 1 -4 4 4 92186.20 90387.40 889.27 o
621 3 -4 4 4 92228.70 88053.10 936.16 o
621 2 4 -4 -4 92228.70 88053.10 936.16 o
621 1 4 -4 4 92228.70 88053.10 936.16 o
622 3 3 -4 4 2099.38 2302.61 529.93 o
622 1 -3 4 4 2099.38 2302.61 529.93 o
623 3 -3 4 4 2104.81 2120.62 569.70 o
623 1 3 -4 4 2104.81 2120.62 569.70 o
624 3 2 -4 4 41815.20 42436.10 750.36 o
624 2 -4 2 -4 41815.20 42436.10 750.36 o
624 1 -2 4 4 41815.20 42436.10 750.36 o
625 3 -2 4 4 41485.20 43931.60 771.46 o
625 2 4 -2 -4 41485.20 43931.60 771.46 o
625 1 2 -4 4 41485.20 43931.60 771.46 o
626 3 1 -4 4 1024.91 1091.96 664.64 <
626 1 -1 4 4 1024.91 1091.96 664.64 <
627 3 -1 4 4 1035.19 775.45 704.32 <
627 1 1 -4 4 1035.19 775.45 704.32 <
628 3 0 -4 4 209313.00 219903.00 910.53 o
628 2 -4 0 -4 209313.00 219903.00 910.53 o
628 1 0 4 4 209313.00 219903.00 910.53 o
629 3 0 4 4 209796.00 232390.00 4599.21 o
629 2 4 0 -4 209796.00 232390.00 4599.21 o
629 1 0 -4 4 209796.00 232390.00 4599.21 o
630 3 -1 -4 4 1024.91 1076.13 759.60 <
630 1 1 4 4 1024.91 1076.13 759.60 <
631 3 1 4 4 1035.20 1060.31 704.22 <
631 1 -1 -4 4 1035.20 1060.31 704.22 <
632 3 -2 -4 4 41551.40 44382.60 955.36 o
632 2 -4 -2 -4 41551.40 44382.60 955.36 o
632 1 2 4 4 41551.40 44382.60 955.36 o
633 3 2 4 4 41749.00 46131.40 867.57 o
633 2 4 2 -4 41749.00 46131.40 867.57 o
633 1 -2 -4 4 41749.00 46131.40 867.57 o
634 3 -3 -4 4 2099.37 2611.21 648.33 o
634 1 3 4 4 2099.37 2611.21 648.33 o
635 3 3 4 4 2104.81 2096.88 656.77 o
635 1 -3 -4 4 2104.81 2096.88 656.77 o
636 3 -4 -4 4 92258.70 97168.60 943.89 o
636 2 -4 -4 -4 92258.70 97168.60 943.89 o
636 1 4 4 4 92258.70 97168.60 943.89 o
637 3 4 4 4 92156.30 91336.90 1001.37 o
637 2 4 4 -4 92156.30 91336.90 1001.37 o
637 1 -4 -4 4 92156.30 91336.90 1001.37 o
638 3 -5 -4 4 460.10 245.29 656.79 <
638 1 5 4 4 460.10 245.29 656.79 <
639 3 5 4 4 453.79 387.73 617.21 <
639 1 -5 -4 4 453.79 387.73 617.21 <
640 3 -6 -4 4 7040.96 7153.13 593.10 o
640 2 -4 -6 -4 7040.96 7153.13 593.10 o
640 1 6 4 4 7040.96 7153.13 593.10 o
641 3 6 4 4 7051.58 7738.67 940.16 o
641 2 4 6 -4 7051.58 7738.67 940.16 o
641 1 -6 -4 4 7051.58 7738.67 940.16 o
642 3 -7 -4 4 464.69 134.52 474.81 <
642 1 7 4 4 464.69 134.52 474.81 <
643 3 7 4 4 472.31 -55.39 822.95 <
643 1 -7 -4 4 472.31 -55.39 822.95 <
644 3 -8 -4 4 10049.20 9946.33 459.54 o
644 2 -4 -8 -4 10049.20 9946.33 459.54 o
644 1 8 4 4 10049.20 9946.33 459.54 o
645 3 -9 -4 4 279.70 332.34 419.36 <
645 1 9 4 4 279.70 332.34 419.36 <
646 3 -10 -4 4 268.71 1598.38 434.26 o
646 2 -4 -10 -4 268.71 1598.38 434.26 o
646 1 10 4 4 268.71 1598.38 434.26 o
647 3 8 -6 4 512.05 443.11 593.47 <
647 2 -6 8 -4 512.05 443.11 593.47 <
647 1 -8 6 4 512.05 443.11 593.47 <
648 3 -8 6 4 511.33 158.26 593.50 <
648 2 6 -8 -4 511.33 158.26 593.50 <
648 1 8 -6 4 511.33 158.26 593.50 <
649 3 7 -6 4 340.65 601.37 593.40 <
649 1 -7 6 4 340.65 601.37 593.40 <
650 3 -7 6 4 337.61 458.94 585.52 <
650 1 7 -6 4 337.61 458.94 585.52 <
651 3 6 -6 4 15594.90 15880.90 607.30 o
651 2 -6 6 -4 15594.90 15880.90 607.30 o
651 1 -6 6 4 15594.90 15880.90 607.30 o
652 3 -6 6 4 15589.10 13736.50 636.35 o
652 2 6 -6 -4 15589.10 13736.50 636.35 o
652 1 6 -6 4 15589.10 13736.50 636.35 o
653 3 5 -6 4 189.04 332.34 553.87 <
653 1 -5 6 4 189.04 332.34 553.87 <
654 3 -5 6 4 191.06 870.40 553.68 <
654 1 5 -6 4 191.06 870.40 553.68 <
655 3 4 -6 4 6937.80 7081.92 585.08 o
655 2 -6 4 -4 6937.80 7081.92 585.08 o
655 1 -4 6 4 6937.80 7081.92 585.08 o
656 3 -4 6 4 6949.00 6456.81 571.24 o
656 2 6 -4 -4 6949.00 6456.81 571.24 o
656 1 4 -6 4 6949.00 6456.81 571.24 o
657 3 3 -6 4 664.34 1867.41 600.59 o
657 1 -3 6 4 664.34 1867.41 600.59 o
658 3 -3 6 4 664.19 917.88 553.79 <
658 1 3 -6 4 664.19 917.88 553.79 <
659 3 2 -6 4 59061.70 59393.10 816.53 o
659 2 -6 2 -4 59061.70 59393.10 816.53 o
659 1 -2 6 4 59061.70 59393.10 816.53 o
660 3 -2 6 4 59093.70 58127.10 779.21 o
660 2 6 -2 -4 59093.70 58127.10 779.21 o
660 1 2 -6 4 59093.70 58127.10 779.21 o
661 3 1 -6 4 258.03 -189.91 680.49 <
661 1 -1 6 4 258.03 -189.91 680.49 <
662 3 -1 6 4 261.15 561.81 632.96 <
662 1 1 -6 4 261.15 561.81 632.96 <
663 3 0 -6 4 19424.00 18998.50 675.80 o
663 2 -6 0 -4 19424.00 18998.50 675.80 o
663 1 0 6 4 19424.00 18998.50 675.80 o
664 3 0 6 4 19410.00 20913.40 700.56 o
664 2 6 0 -4 19410.00 20913.40 700.56 o
664 1 0 -6 4 19410.00 20913.40 700.56 o
665 3 -1 -6 4 258.03 458.94 664.64 <
665 1 1 6 4 258.03 458.94 664.64 <
666 3 1 6 4 261.15 403.55 648.83 <
666 1 -1 -6 4 261.15 403.55 648.83 <
667 3 -2 -6 4 59078.60 56259.70 941.00 o
667 2 -6 -2 -4 59078.60 56259.70 941.00 o
667 1 2 6 4 59078.60 56259.70 941.00 o
668 3 2 6 4 59076.80 63776.80 811.03 o
668 2 6 2 -4 59076.80 63776.80 811.03 o
668 1 -2 -6 4 59076.80 63776.80 811.03 o
669 3 -3 -6 4 664.34 1661.68 687.90 o
669 1 3 6 4 664.34 1661.68 687.90 o
670 3 3 6 4 664.19 775.45 632.99 <
670 1 -3 -6 4 664.19 775.45 632.99 <
671 3 -4 -6 4 6943.63 6860.36 704.45 o
671 2 -6 -4 -4 6943.63 6860.36 704.45 o
671 1 4 6 4 6943.63 6860.36 704.45 o
672 3 4 6 4 6943.19 8411.26 659.99 o
672 2 6 4 -4 6943.19 8411.26 659.99 o
672 1 -4 -6 4 6943.19 8411.26 659.99 o
673 3 -5 -6 4 189.04 237.38 569.71 <
673 1 5 6 4 189.04 237.38 569.71 <
674 3 5 6 4 191.06 -245.29 538.05 <
674 1 -5 -6 4 191.06 -245.29 538.05 <
675 3 -6 -6 4 15584.90 16023.30 733.36 o
675 2 -6 -6 -4 15584.90 16023.30 733.36 o
675 1 6 6 4 15584.90 16023.30 733.36 o
676 3 6 6 4 15599.00 15469.40 657.57 o
676 2 6 6 -4 15599.00 15469.40 657.57 o
676 1 -6 -6 4 15599.00 15469.40 657.57 o
677 3 -7 -6 4 340.65 -664.67 640.79 <
677 1 7 6 4 340.65 -664.67 640.79 <
678 3 7 6 4 337.61 759.63 783.27 <
678 1 -7 -6 4 337.61 759.63 783.27 <
679 3 -8 -6 4 510.40 648.85 514.29 <
679 2 -6 -8 -4 510.40 648.85 514.29 <
679 1 8 6 4 510.40 648.85 514.29 <
680 3 8 6 4 512.98 221.56 870.43 <
680 2 6 8 -4 512.98 221.56 870.43 <
680 1 -8 -6 4 512.98 221.56 870.43 <
681 3 7 -8 4 43.13 973.27 616.93 <
681 1 -7 8 4 43.13 973.27 616.93 <
682 3 -7 8 4 43.97 1297.69 592.96 o
682 1 7 -8 4 43.97 1297.69 592.96 o
683 3 6 -8 4 474.66 174.08 625.14 <
683 2 -8 6 -4 474.66 174.08 625.14 <
683 1 -6 8 4 474.66 174.08 625.14 <
684 3 -6 8 4 473.07 1455.95 585.04 o
684 2 8 -6 -4 473.07 1455.95 585.04 o
684 1 6 -8 4 473.07 1455.95 585.04 o
685 3 5 -8 4 198.73 822.93 640.77 <
685 1 -5 8 4 198.73 822.93 640.77 <
686 3 -5 8 4 197.95 -261.12 593.43 <
686 1 5 -8 4 197.95 -261.12 593.43 <
687 3 4 -8 4 10661.40 10175.80 690.35 o
687 2 -8 4 -4 10661.40 10175.80 690.35 o
687 1 -4 8 4 10661.40 10175.80 690.35 o
688 3 -4 8 4 10654.50 9685.21 605.66 o
688 2 8 -4 -4 10654.50 9685.21 605.66 o
688 1 4 -8 4 10654.50 9685.21 605.66 o
689 3 3 -8 4 30.04 640.93 561.68 <
689 1 -3 8 4 30.04 640.93 561.68 <
690 3 -3 8 4 31.74 0.00 553.89 <
690 1 3 -8 4 31.74 0.00 553.89 <
691 3 2 -8 4 3270.77 1859.50 658.09 o
691 2 -8 2 -4 3270.77 1859.50 658.09 o
691 1 -2 8 4 3270.77 1859.50 658.09 o
692 3 -2 8 4 3279.71 2729.90 617.89 o
692 2 8 -2 -4 3279.71 2729.90 617.89 o
692 1 2 -8 4 3279.71 2729.90 617.89 o
693 3 1 -8 4 193.66 482.68 569.67 <
693 1 -1 8 4 193.66 482.68 569.67 <
694 3 -1 8 4 192.27 276.95 617.19 <
694 1 1 -8 4 192.27 276.95 617.19 <
695 3 0 -8 4 18070.30 17028.20 718.90 o
695 2 -8 0 -4 18070.30 17028.20 718.90 o
695 1 0 8 4 18070.30 17028.20 718.90 o
696 3 0 8 4 18070.20 18745.30 667.61 o
696 2 8 0 -4 18070.20 18745.30 667.61 o
696 1 0 -8 4 18070.20 18745.30 667.61 o
697 3 -1 -8 4 193.66 1147.35 577.27 <
697 1 1 8 4 193.66 1147.35 577.27 <
698 3 1 8 4 192.27 403.55 656.73 <
698 1 -1 -8 4 192.27 403.55 656.73 <
699 3 -2 -8 4 3276.52 2476.69 681.36 o
699 2 -8 -2 -4 3276.52 2476.69 681.36 o
699 1 2 8 4 3276.52 2476.69 681.36 o
700 3 2 8 4 3273.96 2991.02 672.93 o
700 2 8 2 -4 3273.96 2991.02 672.93 o
700 1 -2 -8 4 3273.96 2991.02 672.93 o
701 3 -3 -8 4 30.04 696.32 601.23 <
701 1 3 8 4 30.04 696.32 601.23 <
702 3 3 8 4 31.74 213.64 656.75 <
702 1 -3 -8 4 31.74 213.64 656.75 <
703 3 -4 -8 4 10654.00 9740.60 739.20 o
703 2 -8 -4 -4 10654.00 9740.60 739.20 o
703 1 4 8 4 10654.00 9740.60 739.20 o
704 3 4 8 4 10662.00 12430.90 720.26 o
704 2 8 4 -4 10662.00 12430.90 720.26 o
704 1 -4 -8 4 10662.00 12430.90 720.26 o
705 3 -5 -8 4 198.73 1732.89 671.84 o
705 1 5 8 4 198.73 1732.89 671.84 o
706 3 5 8 4 197.95 1123.61 624.79 <
706 1 -5 -8 4 197.95 1123.61 624.79 <
707 3 -6 -8 4 472.39 1329.34 711.81 <
707 2 -8 -6 -4 472.39 1329.34 711.81 <
707 1 6 8 4 472.39 1329.34 711.81 <
708 3 6 8 4 475.34 680.50 625.05 <
708 2 8 6 -4 475.34 680.50 625.05 <
708 1 -6 -8 4 475.34 680.50 625.05 <
709 3 -7 -8 4 43.13 799.19 680.34 <
709 1 7 8 4 43.13 799.19 680.34 <
710 3 7 8 4 43.97 1012.83 648.57 <
710 1 -7 -8 4 43.97 1012.83 648.57 <
711 3 4 -10 4 223.52 292.77 640.92 <
711 2 -10 4 -4 223.52 292.77 640.92 <
711 1 -4 10 4 223.52 292.77 640.92 <
712 3 -4 10 4 223.38 1202.74 616.82 <
712 2 10 -4 -4 223.38 1202.74 616.82 <
712 1 4 -10 4 223.38 1202.74 616.82 <
713 3 3 -10 4 52.36 395.64 640.89 <
713 1 -3 10 4 52.36 395.64 640.89 <
714 3 -3 10 4 51.99 917.88 601.13 <
714 1 3 -10 4 51.99 917.88 601.13 <
715 3 2 -10 4 3392.94 2753.64 625.92 o
715 2 -10 2 -4 3392.94 2753.64 625.92 o
715 1 -2 10 4 3392.94 2753.64 625.92 o
716 3 -2 10 4 3391.01 4312.45 639.40 o
716 2 10 -2 -4 3391.01 4312.45 639.40 o
716 1 2 -10 4 3391.01 4312.45 639.40 o
717 3 1 -10 4 11.82 261.12 625.09 <
717 1 -1 10 4 11.82 261.12 625.09 <
718 3 -1 10 4 12.08 15.83 585.54 <
718 1 1 -10 4 12.08 15.83 585.54 <
719 3 0 -10 4 624.34 1788.28 640.26 o
719 2 -10 0 -4 624.34 1788.28 640.26 o
719 1 0 10 4 624.34 1788.28 640.26 o
720 3 0 10 4 625.11 727.97 593.42 <
720 2 10 0 -4 625.11 727.97 593.42 <
720 1 0 -10 4 625.11 727.97 593.42 <
721 3 -1 -10 4 11.82 1550.90 671.95 o
721 1 1 10 4 11.82 1550.90 671.95 o
722 3 1 10 4 12.08 1179.00 703.89 <
722 1 -1 -10 4 12.08 1179.00 703.89 <
723 3 -2 -10 4 3391.88 3157.19 664.98 o
723 2 -10 -2 -4 3391.88 3157.19 664.98 o
723 1 2 10 4 3391.88 3157.19 664.98 o
724 3 2 10 4 3392.08 3655.69 640.54 o
724 2 10 2 -4 3392.08 3655.69 640.54 o
724 1 -2 -10 4 3392.08 3655.69 640.54 o
725 3 -3 -10 4 52.36 830.84 656.58 <
725 1 3 10 4 52.36 830.84 656.58 <
726 3 3 10 4 51.99 1139.44 640.58 <
726 1 -3 -10 4 51.99 1139.44 640.58 <
727 3 -4 -10 4 222.73 775.45 640.80 <
727 2 -10 -4 -4 222.73 775.45 640.80 <
727 1 4 10 4 222.73 775.45 640.80 <
728 3 4 10 4 224.18 1424.30 687.93 o
728 2 10 4 -4 224.18 1424.30 687.93 o
728 1 -4 -10 4 224.18 1424.30 687.93 o
729 3 -10 1 5 30.70 704.23 411.25 <
729 1 10 -1 5 30.70 704.23 411.25 <
730 3 -9 1 5 1951.14 2350.09 418.81 o
730 2 1 -9 -5 1951.14 2350.09 418.81 o
730 1 9 -1 5 1951.14 2350.09 418.81 o
731 3 -8 1 5 4.47 39.56 371.90 <
731 1 8 -1 5 4.47 39.56 371.90 <
732 3 7 -1 5 10915.30 15295.40 794.94 o
732 2 -1 7 -5 10915.30 15295.40 794.94 o
732 1 -7 1 5 10915.30 15295.40 794.94 o
733 3 -7 1 5 10883.00 13475.40 497.09 o
733 2 1 -7 -5 10883.00 13475.40 497.09 o
733 1 7 -1 5 10883.00 13475.40 497.09 o
734 3 6 -1 5 1255.46 474.77 696.54 <
734 1 -6 1 5 1255.46 474.77 696.54 <
735 3 -6 1 5 1261.68 1202.74 435.25 o
735 1 6 -1 5 1261.68 1202.74 435.25 o
736 3 5 -1 5 11948.40 13103.50 873.84 o
736 2 -1 5 -5 11948.40 13103.50 873.84 o
736 1 -5 1 5 11948.40 13103.50 873.84 o
737 3 -5 1 5 12000.30 12644.60 454.26 o
737 2 1 -5 -5 12000.30 12644.60 454.26 o
737 1 5 -1 5 12000.30 12644.60 454.26 o
738 3 4 -1 5 5109.67 4898.00 878.64 o
738 1 -4 1 5 5109.67 4898.00 878.64 o
739 3 -4 1 5 5096.58 4526.10 507.83 o
739 1 4 -1 5 5096.58 4526.10 507.83 o
740 3 3 -1 5 8628.99 6591.33 1024.61 o
740 2 -1 3 -5 8628.99 6591.33 1024.61 o
740 1 -3 1 5 8628.99 6591.33 1024.61 o
741 3 -3 1 5 8658.70 7659.55 786.08 o
741 2 1 -3 -5 8658.70 7659.55 786.08 o
741 1 3 -1 5 8658.70 7659.55 786.08 o
742 3 2 -1 5 5521.82 3584.48 1157.15 o
742 1 -2 1 5 5521.82 3584.48 1157.15 o
743 3 -2 1 5 5498.61 3339.18 865.20 o
743 1 2 -1 5 5498.61 3339.18 865.20 o
744 3 1 -1 5 4050.72 9479.48 1519.87 o
744 2 -1 1 -5 4050.72 9479.48 1519.87 o
744 1 -1 1 5 4050.72 9479.48 1519.87 o
745 3 -1 1 5 3939.05 9194.62 1122.27 o
745 2 1 -1 -5 3939.05 9194.62 1122.27 o
745 1 1 -1 5 3939.05 9194.62 1122.27 o
746 3 -1 -1 5 3860.69 9408.27 1408.47 o
746 2 -1 -1 -5 3860.69 9408.27 1408.47 o
746 1 1 1 5 3860.69 9408.27 1408.47 o
747 3 1 1 5 4129.08 9542.78 1662.89 o
747 2 1 1 -5 4129.08 9542.78 1662.89 o
747 1 -1 -1 5 4129.08 9542.78 1662.89 o
748 3 -2 -1 5 5521.82 3726.91 817.55 o
748 1 2 1 5 5521.82 3726.91 817.55 o
749 3 2 1 5 5498.59 2856.50 1268.12 o
749 1 -2 -1 5 5498.59 2856.50 1268.12 o
750 3 -3 -1 5 8638.88 7232.26 629.71 o
750 2 -1 -3 -5 8638.88 7232.26 629.71 o
750 1 3 1 5 8638.88 7232.26 629.71 o
751 3 3 1 5 8648.79 7335.12 1102.35 o
751 2 1 3 -5 8648.79 7335.12 1102.35 o
751 1 -3 -1 5 8648.79 7335.12 1102.35 o
752 3 -4 -1 5 5109.65 3995.94 595.64 o
752 1 4 1 5 5109.65 3995.94 595.64 o
753 3 4 1 5 5096.56 3798.12 879.98 o
753 1 -4 -1 5 5096.56 3798.12 879.98 o
754 3 -5 -1 5 11905.70 13483.30 527.84 o
754 2 -1 -5 -5 11905.70 13483.30 527.84 o
754 1 5 1 5 11905.70 13483.30 527.84 o
755 3 -6 -1 5 1255.45 1305.60 387.68 o
755 1 6 1 5 1255.45 1305.60 387.68 o
756 3 -7 -1 5 10891.80 13886.90 402.48 o
756 2 -1 -7 -5 10891.80 13886.90 402.48 o
756 1 7 1 5 10891.80 13886.90 402.48 o
757 3 -8 -1 5 4.66 -47.48 395.64 <
757 1 8 1 5 4.66 -47.48 395.64 <
758 3 -9 -1 5 1945.78 2484.60 410.66 o
758 2 -1 -9 -5 1945.78 2484.60 410.66 o
758 1 9 1 5 1945.78 2484.60 410.66 o
759 3 -10 -1 5 30.32 743.80 427.06 <
759 1 10 1 5 30.32 743.80 427.06 <
760 3 -10 3 5 24.81 482.68 443.02 <
760 1 10 -3 5 24.81 482.68 443.02 <
761 3 9 -3 5 2960.11 2524.17 760.03 o
761 2 -3 9 -5 2960.11 2524.17 760.03 o
761 1 -9 3 5 2960.11 2524.17 760.03 o
762 3 -9 3 5 2953.30 3078.06 506.22 o
762 2 3 -9 -5 2953.30 3078.06 506.22 o
762 1 9 -3 5 2953.30 3078.06 506.22 o
763 3 8 -3 5 105.10 379.81 814.99 <
763 1 -8 3 5 105.10 379.81 814.99 <
764 3 -8 3 5 106.84 1028.66 458.55 o
764 1 8 -3 5 106.84 1028.66 458.55 o
765 3 7 -3 5 2772.65 3616.13 774.48 o
765 2 -3 7 -5 2772.65 3616.13 774.48 o
765 1 -7 3 5 2772.65 3616.13 774.48 o
766 3 -7 3 5 2770.74 3078.06 600.96 o
766 2 3 -7 -5 2770.74 3078.06 600.96 o
766 1 7 -3 5 2770.74 3078.06 600.96 o
767 3 6 -3 5 74.13 545.98 545.89 <
767 1 -6 3 5 74.13 545.98 545.89 <
768 3 -6 3 5 74.35 118.69 538.07 <
768 1 6 -3 5 74.35 118.69 538.07 <
769 3 5 -3 5 19921.90 21506.90 586.44 o
769 2 -3 5 -5 19921.90 21506.90 586.44 o
769 1 -5 3 5 19921.90 21506.90 586.44 o
770 3 -5 3 5 19853.70 20691.90 601.75 o
770 2 3 -5 -5 19853.70 20691.90 601.75 o
770 1 5 -3 5 19853.70 20691.90 601.75 o
771 3 4 -3 5 1263.69 1899.06 521.69 o
771 1 -4 3 5 1263.69 1899.06 521.69 o
772 3 -4 3 5 1263.24 1020.75 538.20 <
772 1 4 -3 5 1263.24 1020.75 538.20 <
773 3 3 -3 5 4690.98 4233.32 594.36 o
773 2 -3 3 -5 4690.98 4233.32 594.36 o
773 1 -3 3 5 4690.98 4233.32 594.36 o
774 3 -3 3 5 4567.85 3734.82 579.17 o
774 2 3 -3 -5 4567.85 3734.82 579.17 o
774 1 3 -3 5 4567.85 3734.82 579.17 o
775 3 2 -3 5 675.80 553.89 656.79 <
775 1 -2 3 5 675.80 553.89 656.79 <
776 3 -2 3 5 663.97 466.85 656.80 <
776 1 2 -3 5 663.97 466.85 656.80 <
777 3 1 -3 5 8037.57 7509.20 737.36 o
777 2 -3 1 -5 8037.57 7509.20 737.36 o
777 1 -1 3 5 8037.57 7509.20 737.36 o
778 3 -1 3 5 7985.52 6227.34 700.90 o
778 2 3 -1 -5 7985.52 6227.34 700.90 o
778 1 1 -3 5 7985.52 6227.34 700.90 o
779 3 -1 -3 5 7989.58 7422.16 966.55 o
779 2 -3 -1 -5 7989.58 7422.16 966.55 o
779 1 1 3 5 7989.58 7422.16 966.55 o
780 3 1 3 5 8033.50 7192.69 967.09 o
780 2 3 1 -5 8033.50 7192.69 967.09 o
780 1 -1 -3 5 8033.50 7192.69 967.09 o
781 3 -2 -3 5 675.80 712.15 846.66 <
781 1 2 3 5 675.80 712.15 846.66 <
782 3 2 3 5 663.97 727.97 791.26 <
782 1 -2 -3 5 663.97 727.97 791.26 <
783 3 -3 -3 5 4481.45 3766.47 736.92 o
783 2 -3 -3 -5 4481.45 3766.47 736.92 o
783 1 3 3 5 4481.45 3766.47 736.92 o
784 3 3 3 5 4777.39 4082.98 752.77 o
784 2 3 3 -5 4777.39 4082.98 752.77 o
784 1 -3 -3 5 4777.39 4082.98 752.77 o
785 3 -4 -3 5 1263.70 569.72 672.80 <
785 1 4 3 5 1263.70 569.72 672.80 <
786 3 4 3 5 1263.25 1305.60 704.21 <
786 1 -4 -3 5 1263.25 1305.60 704.21 <
787 3 -5 -3 5 19798.70 20676.00 601.40 o
787 2 -3 -5 -5 19798.70 20676.00 601.40 o
787 1 5 3 5 19798.70 20676.00 601.40 o
788 3 5 3 5 19976.90 20296.20 884.29 o
788 2 3 5 -5 19976.90 20296.20 884.29 o
788 1 -5 -3 5 19976.90 20296.20 884.29 o
789 3 -6 -3 5 74.13 498.50 490.51 <
789 1 6 3 5 74.13 498.50 490.51 <
790 3 6 3 5 74.35 1606.29 893.64 <
790 1 -6 -3 5 74.35 1606.29 893.64 <
791 3 -7 -3 5 2750.24 3481.61 473.43 o
791 2 -3 -7 -5 2750.24 3481.61 473.43 o
791 1 7 3 5 2750.24 3481.61 473.43 o
792 3 -8 -3 5 105.10 158.26 395.63 <
792 1 8 3 5 105.10 158.26 395.63 <
793 3 -9 -3 5 2956.16 3220.49 410.93 o
793 2 -3 -9 -5 2956.16 3220.49 410.93 o
793 1 9 3 5 2956.16 3220.49 410.93 o
794 3 -10 -3 5 24.73 1131.52 434.68 o
794 1 10 3 5 24.73 1131.52 434.68 o
795 3 9 -5 5 155.15 735.89 838.65 <
795 2 -5 9 -5 155.15 735.89 838.65 <
795 1 -9 5 5 155.15 735.89 838.65 <
796 3 -9 5 5 155.25 1123.61 608.94 <
796 2 5 -9 -5 155.25 1123.61 608.94 <
796 1 9 -5 5 155.25 1123.61 608.94 <
797 3 8 -5 5 33.05 886.23 577.39 <
797 1 -8 5 5 33.05 886.23 577.39 <
798 3 -8 5 5 33.06 735.89 593.30 <
798 1 8 -5 5 33.06 735.89 593.30 <
799 3 7 -5 5 6809.02 6757.49 569.88 o
799 2 -5 7 -5 6809.02 6757.49 569.88 o
799 1 -7 5 5 6809.02 6757.49 569.88 o
800 3 -7 5 5 6805.40 4692.26 590.72 o
800 2 5 -7 -5 6805.40 4692.26 590.72 o
800 1 7 -5 5 6805.40 4692.26 590.72 o
801 3 6 -5 5 77.63 466.85 553.83 <
801 1 -6 5 5 77.63 466.85 553.83 <
802 3 -6 5 5 77.98 656.76 561.68 <
802 1 6 -5 5 77.98 656.76 561.68 <
803 3 5 -5 5 2485.41 2120.62 593.82 o
803 2 -5 5 -5 2485.41 2120.62 593.82 o
803 1 -5 5 5 2485.41 2120.62 593.82 o
804 3 -5 5 5 2450.57 2041.49 585.95 o
804 2 5 -5 -5 2450.57 2041.49 585.95 o
804 1 5 -5 5 2450.57 2041.49 585.95 o
805 3 4 -5 5 11.40 -181.99 545.97 <
805 1 -4 5 5 11.40 -181.99 545.97 <
806 3 -4 5 5 11.11 656.76 522.10 <
806 1 4 -5 5 11.11 656.76 522.10 <
807 3 3 -5 5 21526.00 19631.50 625.86 o
807 2 -5 3 -5 21526.00 19631.50 625.86 o
807 1 -3 5 5 21526.00 19631.50 625.86 o
808 3 -3 5 5 21443.40 20763.10 662.53 o
808 2 5 -3 -5 21443.40 20763.10 662.53 o
808 1 3 -5 5 21443.40 20763.10 662.53 o
809 3 2 -5 5 41.51 735.89 601.21 <
809 1 -2 5 5 41.51 735.89 601.21 <
810 3 -2 5 5 42.19 -47.48 609.28 <
810 1 2 -5 5 42.19 -47.48 609.28 <
811 3 1 -5 5 14554.70 12945.30 688.95 o
811 2 -5 1 -5 14554.70 12945.30 688.95 o
811 1 -1 5 5 14554.70 12945.30 688.95 o
812 3 -1 5 5 14343.00 12929.40 633.14 o
812 2 5 -1 -5 14343.00 12929.40 633.14 o
812 1 1 -5 5 14343.00 12929.40 633.14 o
813 3 -1 -5 5 14325.40 13119.30 718.23 o
813 2 -5 -1 -5 14325.40 13119.30 718.23 o
813 1 1 5 5 14325.40 13119.30 718.23 o
814 3 1 5 5 14572.30 13847.30 755.33 o
814 2 5 1 -5 14572.30 13847.30 755.33 o
814 1 -1 -5 5 14572.30 13847.30 755.33 o
815 3 -2 -5 5 41.51 759.63 727.84 <
815 1 2 5 5 41.51 759.63 727.84 <
816 3 2 5 5 42.19 482.68 632.96 <
816 1 -2 -5 5 42.19 482.68 632.96 <
817 3 -3 -5 5 21392.70 20351.60 782.83 o
817 2 -5 -3 -5 21392.70 20351.60 782.83 o
817 1 3 5 5 21392.70 20351.60 782.83 o
818 3 3 5 5 21576.70 21459.40 800.03 o
818 2 5 3 -5 21576.70 21459.40 800.03 o
818 1 -3 -5 5 21576.70 21459.40 800.03 o
819 3 -4 -5 5 11.40 427.29 664.62 <
819 1 4 5 5 11.40 427.29 664.62 <
820 3 4 5 5 11.11 332.34 593.42 <
820 1 -4 -5 5 11.11 332.34 593.42 <
821 3 -5 -5 5 2426.12 2460.87 696.29 o
821 2 -5 -5 -5 2426.12 2460.87 696.29 o
821 1 5 5 5 2426.12 2460.87 696.29 o
822 3 5 5 5 2509.86 3022.67 561.11 o
822 2 5 5 -5 2509.86 3022.67 561.11 o
822 1 -5 -5 5 2509.86 3022.67 561.11 o
823 3 -6 -5 5 77.63 838.75 656.58 <
823 1 6 5 5 77.63 838.75 656.58 <
824 3 6 5 5 77.98 284.86 791.26 <
824 1 -6 -5 5 77.98 284.86 791.26 <
825 3 -7 -5 5 6808.45 6045.34 501.07 o
825 2 -5 -7 -5 6808.45 6045.34 501.07 o
825 1 7 5 5 6808.45 6045.34 501.07 o
826 3 7 5 5 6805.97 6235.25 816.21 o
826 2 5 7 -5 6805.97 6235.25 816.21 o
826 1 -7 -5 5 6805.97 6235.25 816.21 o
827 3 -8 -5 5 33.05 545.98 514.23 <
827 1 8 5 5 33.05 545.98 514.23 <
828 3 8 5 5 33.06 221.56 759.61 <
828 1 -8 -5 5 33.06 221.56 759.61 <
829 3 -9 -5 5 153.12 553.89 443.01 <
829 2 -5 -9 -5 153.12 553.89 443.01 <
829 1 9 5 5 153.12 553.89 443.01 <
830 3 8 -7 5 8.48 735.89 585.38 <
830 1 -8 7 5 8.48 735.89 585.38 <
831 3 -8 7 5 8.66 965.36 601.09 <
831 1 8 -7 5 8.66 965.36 601.09 <
832 3 7 -7 5 153.63 356.07 545.95 <
832 2 -7 7 -5 153.63 356.07 545.95 <
832 1 -7 7 5 153.63 356.07 545.95 <
833 3 -7 7 5 150.71 1622.11 537.24 o
833 2 7 -7 -5 150.71 1622.11 537.24 o
833 1 7 -7 5 150.71 1622.11 537.24 o
834 3 6 -7 5 38.89 379.81 601.33 <
834 1 -6 7 5 38.89 379.81 601.33 <
835 3 -6 7 5 39.04 -55.39 593.46 <
835 1 6 -7 5 39.04 -55.39 593.46 <
836 3 5 -7 5 7332.99 5768.40 605.72 o
836 2 -7 5 -5 7332.99 5768.40 605.72 o
836 1 -5 7 5 7332.99 5768.40 605.72 o
837 3 -5 7 5 7340.61 5823.79 574.19 o
837 2 7 -5 -5 7340.61 5823.79 574.19 o
837 1 5 -7 5 7340.61 5823.79 574.19 o
838 3 4 -7 5 15.90 292.77 577.60 <
838 1 -4 7 5 15.90 292.77 577.60 <
839 3 -4 7 5 16.06 775.45 585.36 <
839 1 4 -7 5 16.06 775.45 585.36 <
840 3 3 -7 5 3714.30 3315.44 594.07 o
840 2 -7 3 -5 3714.30 3315.44 594.07 o
840 1 -3 7 5 3714.30 3315.44 594.07 o
841 3 -3 7 5 3673.85 3165.10 578.41 o
841 2 7 -3 -5 3673.85 3165.10 578.41 o
841 1 3 -7 5 3673.85 3165.10 578.41 o
842 3 2 -7 5 18.98 1123.61 577.25 <
842 1 -2 7 5 18.98 1123.61 577.25 <
843 3 -2 7 5 18.68 482.68 569.65 <
843 1 2 -7 5 18.68 482.68 569.65 <
844 3 1 -7 5 14118.60 12882.00 639.91 o
844 2 -7 1 -5 14118.60 12882.00 639.91 o
844 1 -1 7 5 14118.60 12882.00 639.91 o
845 3 -1 7 5 14149.60 14472.40 615.19 o
845 2 7 -1 -5 14149.60 14472.40 615.19 o
845 1 1 -7 5 14149.60 14472.40 615.19 o
846 3 -1 -7 5 14139.90 13491.20 707.59 o
846 2 -7 -1 -5 14139.90 13491.20 707.59 o
846 1 1 7 5 14139.90 13491.20 707.59 o
847 3 1 7 5 14128.30 15469.40 656.54 o
847 2 7 1 -5 14128.30 15469.40 656.54 o
847 1 -1 -7 5 14128.30 15469.40 656.54 o
848 3 -2 -7 5 18.98 815.01 640.75 <
848 1 2 7 5 18.98 815.01 640.75 <
849 3 2 7 5 18.68 174.08 633.01 <
849 1 -2 -7 5 18.68 174.08 633.01 <
850 3 -3 -7 5 3664.63 3972.20 608.76 o
850 2 -7 -3 -5 3664.63 3972.20 608.76 o
850 1 3 7 5 3664.63 3972.20 608.76 o
851 3 3 7 5 3723.53 3022.67 610.28 o
851 2 7 3 -5 3723.53 3022.67 610.28 o
851 1 -3 -7 5 3723.53 3022.67 610.28 o
852 3 -4 -7 5 15.90 348.16 664.64 <
852 1 4 7 5 15.90 348.16 664.64 <
853 3 4 7 5 16.06 363.99 648.81 <
853 1 -4 -7 5 16.06 363.99 648.81 <
854 3 -5 -7 5 7340.37 6939.49 721.11 o
854 2 -7 -5 -5 7340.37 6939.49 721.11 o
854 1 5 7 5 7340.37 6939.49 721.11 o
855 3 5 7 5 7333.21 5997.87 644.50 o
855 2 7 5 -5 7333.21 5997.87 644.50 o
855 1 -5 -7 5 7333.21 5997.87 644.50 o
856 3 -6 -7 5 38.89 324.42 664.65 <
856 1 6 7 5 38.89 324.42 664.65 <
857 3 6 7 5 39.04 506.42 601.30 <
857 1 -6 -7 5 39.04 506.42 601.30 <
858 3 -7 -7 5 148.66 1495.51 687.86 o
858 2 -7 -7 -5 148.66 1495.51 687.86 o
858 1 7 7 5 148.66 1495.51 687.86 o
859 3 7 7 5 155.67 269.03 846.66 <
859 2 7 7 -5 155.67 269.03 846.66 <
859 1 -7 -7 5 155.67 269.03 846.66 <
860 3 -8 -7 5 8.48 1273.95 553.37 o
860 1 8 7 5 8.48 1273.95 553.37 o
861 3 8 7 5 8.66 1550.90 972.83 <
861 1 -8 -7 5 8.66 1550.90 972.83 <
862 3 5 -9 5 220.99 1542.99 695.76 o
862 2 -9 5 -5 220.99 1542.99 695.76 o
862 1 -5 9 5 220.99 1542.99 695.76 o
863 3 -5 9 5 216.67 506.42 593.40 <
863 2 9 -5 -5 216.67 506.42 593.40 <
863 1 5 -9 5 216.67 506.42 593.40 <
864 3 4 -9 5 15.26 949.53 632.77 <
864 1 -4 9 5 15.26 949.53 632.77 <
865 3 -4 9 5 15.24 427.29 601.32 <
865 1 4 -9 5 15.24 427.29 601.32 <
866 3 3 -9 5 3714.62 3054.32 633.93 o
866 2 -9 3 -5 3714.62 3054.32 633.93 o
866 1 -3 9 5 3714.62 3054.32 633.93 o
867 3 -3 9 5 3723.17 2706.16 602.74 o
867 2 9 -3 -5 3723.17 2706.16 602.74 o
867 1 3 -9 5 3723.17 2706.16 602.74 o
868 3 2 -9 5 2.00 253.21 593.44 <
868 1 -2 9 5 2.00 253.21 593.44 <
869 3 -2 9 5 2.05 253.21 561.78 <
869 1 2 -9 5 2.05 253.21 561.78 <
870 3 1 -9 5 2761.19 3228.40 648.26 o
870 2 -9 1 -5 2761.19 3228.40 648.26 o
870 1 -1 9 5 2761.19 3228.40 648.26 o
871 3 -1 9 5 2749.98 3085.97 648.43 o
871 2 9 -1 -5 2749.98 3085.97 648.43 o
871 1 1 -9 5 2749.98 3085.97 648.43 o
872 3 -1 -9 5 2748.19 1978.19 649.55 o
872 2 -9 -1 -5 2748.19 1978.19 649.55 o
872 1 1 9 5 2748.19 1978.19 649.55 o
873 3 1 9 5 2762.98 2864.42 561.67 o
873 2 9 1 -5 2762.98 2864.42 561.67 o
873 1 -1 -9 5 2762.98 2864.42 561.67 o
874 3 -2 -9 5 2.00 379.81 617.15 <
874 1 2 9 5 2.00 379.81 617.15 <
875 3 2 9 5 2.05 545.98 656.68 <
875 1 -2 -9 5 2.05 545.98 656.68 <
876 3 -3 -9 5 3721.56 3513.26 704.52 o
876 2 -9 -3 -5 3721.56 3513.26 704.52 o
876 1 3 9 5 3721.56 3513.26 704.52 o
877 3 3 9 5 3716.24 3861.42 648.62 o
877 2 9 3 -5 3716.24 3861.42 648.62 o
877 1 -3 -9 5 3716.24 3861.42 648.62 o
878 3 -4 -9 5 15.26 862.49 696.13 <
878 1 4 9 5 15.26 862.49 696.13 <
879 3 4 9 5 15.24 308.60 632.99 <
879 1 -4 -9 5 15.24 308.60 632.99 <
880 3 -5 -9 5 215.83 134.52 680.50 <
880 2 -9 -5 -5 215.83 134.52 680.50 <
880 1 5 9 5 215.83 134.52 680.50 <
881 3 5 9 5 221.83 1622.11 664.02 o
881 2 9 5 -5 221.83 1622.11 664.02 o
881 1 -5 -9 5 221.83 1622.11 664.02 o
882 3 0 0 6 65735.90 87293.50 1846.55 o
882 2 0 0 -6 65735.90 87293.50 1846.55 o
882 1 0 0 6 65735.90 87293.50 1846.55 o
883 3 -1 0 6 11838.90 11346.90 1338.38 o
883 1 1 0 6 11838.90 11346.90 1338.38 o
884 3 1 0 6 11838.90 10824.60 1268.42 o
884 1 -1 0 6 11838.90 10824.60 1268.42 o
885 3 -2 0 6 461424.00 490385.00 9719.88 o
885 2 0 -2 -6 461424.00 490385.00 9719.88 o
885 1 2 0 6 461424.00 490385.00 9719.88 o
886 3 2 0 6 463522.00 509360.00 9869.69 o
886 2 0 2 -6 463522.00 509360.00 9869.69 o
886 1 -2 0 6 463522.00 509360.00 9869.69 o
887 3 -3 0 6 428.36 1313.52 719.73 <
887 1 3 0 6 428.36 1313.52 719.73 <
888 3 3 0 6 428.36 1226.48 711.86 <
888 1 -3 0 6 428.36 1226.48 711.86 <
889 3 -4 0 6 156138.00 157970.00 821.15 o
889 2 0 -4 -6 156138.00 157970.00 821.15 o
889 1 4 0 6 156138.00 157970.00 821.15 o
890 3 4 0 6 155578.00 166033.00 1466.85 o
890 2 0 4 -6 155578.00 166033.00 1466.85 o
890 1 -4 0 6 155578.00 166033.00 1466.85 o
891 3 -5 0 6 5777.15 4423.23 478.46 o
891 1 5 0 6 5777.15 4423.23 478.46 o
892 3 5 0 6 5777.14 5459.80 807.68 o
892 1 -5 0 6 5777.14 5459.80 807.68 o
893 3 -6 0 6 13128.70 8340.04 493.28 o
893 2 0 -6 -6 13128.70 8340.04 493.28 o
893 1 6 0 6 13128.70 8340.04 493.28 o
894 3 -7 0 6 337.43 759.63 395.46 <
894 1 7 0 6 337.43 759.63 395.46 <
895 3 -8 0 6 27173.90 30756.90 447.17 o
895 2 0 -8 -6 27173.90 30756.90 447.17 o
895 1 8 0 6 27173.90 30756.90 447.17 o
896 3 -9 0 6 87.89 316.51 403.51 <
896 1 9 0 6 87.89 316.51 403.51 <
897 3 -10 0 6 380.34 569.72 403.49 <
897 2 0 -10 -6 380.34 569.72 403.49 <
897 1 10 0 6 380.34 569.72 403.49 <
898 3 -10 2 6 4327.94 3940.55 444.06 o
898 2 2 -10 -6 4327.94 3940.55 444.06 o
898 1 10 -2 6 4327.94 3940.55 444.06 o
899 3 -9 2 6 159.44 696.32 490.44 <
899 1 9 -2 6 159.44 696.32 490.44 <
900 3 8 -2 6 1820.02 735.89 736.32 <
900 2 -2 8 -6 1820.02 735.89 736.32 <
900 1 -8 2 6 1820.02 735.89 736.32 <
901 3 -8 2 6 1801.00 538.07 428.04 <
901 2 2 -8 -6 1801.00 538.07 428.04 <
901 1 8 -2 6 1801.00 538.07 428.04 <
902 3 7 -2 6 798.56 2073.14 703.44 o
902 1 -7 2 6 798.56 2073.14 703.44 o
903 3 -7 2 6 810.93 1036.57 482.56 o
903 1 7 -2 6 810.93 1036.57 482.56 o
904 3 6 -2 6 72672.50 76635.00 999.45 o
904 2 -2 6 -6 72672.50 76635.00 999.45 o
904 1 -6 2 6 72672.50 76635.00 999.45 o
905 3 -6 2 6 72852.60 76389.70 528.32 o
905 2 2 -6 -6 72852.60 76389.70 528.32 o
905 1 6 -2 6 72852.60 76389.70 528.32 o
906 3 5 -2 6 387.20 617.20 712.10 <
906 1 -5 2 6 387.20 617.20 712.10 <
907 3 -5 2 6 383.33 -443.11 545.91 <
907 1 5 -2 6 383.33 -443.11 545.91 <
908 3 4 -2 6 64343.30 67440.40 692.40 o
908 2 -2 4 -6 64343.30 67440.40 692.40 o
908 1 -4 2 6 64343.30 67440.40 692.40 o
909 3 -4 2 6 64062.90 65818.30 751.69 o
909 2 2 -4 -6 64062.90 65818.30 751.69 o
909 1 4 -2 6 64062.90 65818.30 751.69 o
910 3 3 -2 6 7983.50 7801.98 673.15 o
910 1 -3 2 6 7983.50 7801.98 673.15 o
911 3 -3 2 6 7949.07 7192.69 682.70 o
911 1 3 -2 6 7949.07 7192.69 682.70 o
912 3 2 -2 6 156677.00 164435.00 996.91 o
912 2 -2 2 -6 156677.00 164435.00 996.91 o
912 1 -2 2 6 156677.00 164435.00 996.91 o
913 3 -2 2 6 157217.00 166927.00 880.46 o
913 2 2 -2 -6 157217.00 166927.00 880.46 o
913 1 2 -2 6 157217.00 166927.00 880.46 o
914 3 1 -2 6 6316.07 6591.33 861.94 o
914 1 -1 2 6 6316.07 6591.33 861.94 o
915 3 -1 2 6 6348.47 7192.69 916.18 o
915 1 1 -2 6 6348.47 7192.69 916.18 o
916 3 0 -2 6 471242.00 513213.00 10235.10 o
916 2 -2 0 -6 471242.00 513213.00 10235.10 o
916 1 0 2 6 471242.00 513213.00 10235.10 o
917 3 0 2 6 472107.00 490440.00 1751.08 o
917 2 2 0 -6 472107.00 490440.00 1751.08 o
917 1 0 -2 6 472107.00 490440.00 1751.08 o
918 3 -1 -2 6 6316.07 7081.92 1296.62 o
918 1 1 2 6 6316.07 7081.92 1296.62 o
919 3 1 2 6 6348.46 6804.97 1162.48 o
919 1 -1 -2 6 6348.46 6804.97 1162.48 o
920 3 -2 -2 6 157596.00 165013.00 1518.35 o
920 2 -2 -2 -6 157596.00 165013.00 1518.35 o
920 1 2 2 6 157596.00 165013.00 1518.35 o
921 3 2 2 6 156297.00 165741.00 1384.22 o
921 2 2 2 -6 156297.00 165741.00 1384.22 o
921 1 -2 -2 6 156297.00 165741.00 1384.22 o
922 3 -3 -2 6 7983.50 6567.59 676.53 o
922 1 3 2 6 7983.50 6567.59 676.53 o
923 3 3 2 6 7949.07 7105.65 982.87 o
923 1 -3 -2 6 7949.07 7105.65 982.87 o
924 3 -4 -2 6 63983.90 65280.20 729.52 o
924 2 -2 -4 -6 63983.90 65280.20 729.52 o
924 1 4 2 6 63983.90 65280.20 729.52 o
925 3 4 2 6 64422.20 67298.00 1118.58 o
925 2 2 4 -6 64422.20 67298.00 1118.58 o
925 1 -4 -2 6 64422.20 67298.00 1118.58 o
926 3 -5 -2 6 387.20 743.80 458.81 <
926 1 5 2 6 387.20 743.80 458.81 <
927 3 5 2 6 383.34 997.01 759.45 <
927 1 -5 -2 6 383.34 997.01 759.45 <
928 3 -6 -2 6 72865.70 76120.70 632.20 o
928 2 -2 -6 -6 72865.70 76120.70 632.20 o
928 1 6 2 6 72865.70 76120.70 632.20 o
929 3 6 2 6 72659.50 79808.00 992.55 o
929 2 2 6 -6 72659.50 79808.00 992.55 o
929 1 -6 -2 6 72659.50 79808.00 992.55 o
930 3 -7 -2 6 798.56 680.50 419.43 <
930 1 7 2 6 798.56 680.50 419.43 <
931 3 -8 -2 6 1797.49 973.27 396.33 o
931 2 -2 -8 -6 1797.49 973.27 396.33 o
931 1 8 2 6 1797.49 973.27 396.33 o
932 3 -9 -2 6 160.31 609.28 427.16 <
932 1 9 2 6 160.31 609.28 427.16 <
933 3 -10 -2 6 4328.37 4462.79 474.43 o
933 2 -2 -10 -6 4328.37 4462.79 474.43 o
933 1 10 2 6 4328.37 4462.79 474.43 o
934 3 9 -4 6 130.91 1266.04 695.94 <
934 1 -9 4 6 130.91 1266.04 695.94 <
935 3 -9 4 6 132.65 443.11 498.45 <
935 1 9 -4 6 132.65 443.11 498.45 <
936 3 8 -4 6 12756.80 13206.40 868.60 o
936 2 -4 8 -6 12756.80 13206.40 868.60 o
936 1 -8 4 6 12756.80 13206.40 868.60 o
937 3 -8 4 6 12775.60 11758.40 653.88 o
937 2 4 -8 -6 12775.60 11758.40 653.88 o
937 1 8 -4 6 12775.60 11758.40 653.88 o
938 3 7 -4 6 292.46 640.93 522.15 <
938 1 -7 4 6 292.46 640.93 522.15 <
939 3 -7 4 6 287.32 720.06 530.03 <
939 1 7 -4 6 287.32 720.06 530.03 <
940 3 6 -4 6 5444.61 5008.77 594.47 o
940 2 -4 6 -6 5444.61 5008.77 594.47 o
940 1 -6 4 6 5444.61 5008.77 594.47 o
941 3 -6 4 6 5406.44 4636.87 603.04 o
941 2 4 -6 -6 5406.44 4636.87 603.04 o
941 1 6 -4 6 5406.44 4636.87 603.04 o
942 3 5 -4 6 1561.64 363.99 506.90 <
942 1 -5 4 6 1561.64 363.99 506.90 <
943 3 -5 4 6 1564.33 1115.70 522.53 o
943 1 5 -4 6 1564.33 1115.70 522.53 o
944 3 4 -4 6 95594.50 87705.00 1034.60 o
944 2 -4 4 -6 95594.50 87705.00 1034.60 o
944 1 -4 4 6 95594.50 87705.00 1034.60 o
945 3 -4 4 6 95669.30 86977.00 1045.88 o
945 2 4 -4 -6 95669.30 86977.00 1045.88 o
945 1 4 -4 6 95669.30 86977.00 1045.88 o
946 3 3 -4 6 1768.34 1978.19 537.87 o
946 1 -3 4 6 1768.34 1978.19 537.87 o
947 3 -3 4 6 1764.75 2294.70 513.75 o
947 1 3 -4 6 1764.75 2294.70 513.75 o
948 3 2 -4 6 62640.60 69110.00 706.60 o
948 2 -4 2 -6 62640.60 69110.00 706.60 o
948 1 -2 4 6 62640.60 69110.00 706.60 o
949 3 -2 4 6 62597.40 65929.10 792.91 o
949 2 4 -2 -6 62597.40 65929.10 792.91 o
949 1 2 -4 6 62597.40 65929.10 792.91 o
950 3 1 -4 6 2745.10 3394.57 671.77 o
950 1 -1 4 6 2745.10 3394.57 671.77 o
951 3 -1 4 6 2753.51 3236.32 735.35 o
951 1 1 -4 6 2753.51 3236.32 735.35 o
952 3 0 -4 6 160992.00 158136.00 1365.75 o
952 2 -4 0 -6 160992.00 158136.00 1365.75 o
952 1 0 4 6 160992.00 158136.00 1365.75 o
953 3 0 4 6 160762.00 162813.00 1244.17 o
953 2 4 0 -6 160762.00 162813.00 1244.17 o
953 1 0 -4 6 160762.00 162813.00 1244.17 o
954 3 -1 -4 6 2745.09 3481.61 806.31 o
954 1 1 4 6 2745.09 3481.61 806.31 o
955 3 1 4 6 2753.52 3228.40 798.70 o
955 1 -1 -4 6 2753.52 3228.40 798.70 o
956 3 -2 -4 6 62449.30 66767.80 969.78 o
956 2 -4 -2 -6 62449.30 66767.80 969.78 o
956 1 2 4 6 62449.30 66767.80 969.78 o
957 3 2 4 6 62788.70 71151.50 858.49 o
957 2 4 2 -6 62788.70 71151.50 858.49 o
957 1 -2 -4 6 62788.70 71151.50 858.49 o
958 3 -3 -4 6 1768.34 2785.29 727.06 o
958 1 3 4 6 1768.34 2785.29 727.06 o
959 3 3 4 6 1764.75 1740.81 617.21 o
959 1 -3 -4 6 1764.75 1740.81 617.21 o
960 3 -4 -4 6 95721.70 89991.80 1178.30 o
960 2 -4 -4 -6 95721.70 89991.80 1178.30 o
960 1 4 4 6 95721.70 89991.80 1178.30 o
961 3 4 4 6 95541.90 89746.50 1151.21 o
961 2 4 4 -6 95541.90 89746.50 1151.21 o
961 1 -4 -4 6 95541.90 89746.50 1151.21 o
962 3 -5 -4 6 1561.64 1155.26 664.88 <
962 1 5 4 6 1561.64 1155.26 664.88 <
963 3 5 4 6 1564.33 815.01 823.18 <
963 1 -5 -4 6 1564.33 815.01 823.18 <
964 3 -6 -4 6 5391.76 6021.61 560.07 o
964 2 -4 -6 -6 5391.76 6021.61 560.07 o
964 1 6 4 6 5391.76 6021.61 560.07 o
965 3 6 4 6 5459.28 5720.92 957.03 o
965 2 4 6 -6 5459.28 5720.92 957.03 o
965 1 -6 -4 6 5459.28 5720.92 957.03 o
966 3 -7 -4 6 292.46 822.93 450.82 <
966 1 7 4 6 292.46 822.93 450.82 <
967 3 7 4 6 287.32 -530.16 791.20 <
967 1 -7 -4 6 287.32 -530.16 791.20 <
968 3 -8 -4 6 12778.70 12779.10 553.89 o
968 2 -4 -8 -6 12778.70 12779.10 553.89 o
968 1 8 4 6 12778.70 12779.10 553.89 o
969 3 -9 -4 6 130.91 205.73 419.37 <
969 1 9 4 6 130.91 205.73 419.37 <
970 3 8 -6 6 357.63 664.67 577.55 <
970 2 -6 8 -6 357.63 664.67 577.55 <
970 1 -8 6 6 357.63 664.67 577.55 <
971 3 -8 6 6 355.46 1305.60 561.36 o
971 2 6 -8 -6 355.46 1305.60 561.36 o
971 1 8 -6 6 355.46 1305.60 561.36 o
972 3 7 -6 6 239.16 1495.51 584.93 o
972 1 -7 6 6 239.16 1495.51 584.93 o
973 3 -7 6 6 240.63 94.95 585.55 <
973 1 7 -6 6 240.63 94.95 585.55 <
974 3 6 -6 6 18508.60 16039.20 642.63 o
974 2 -6 6 -6 18508.60 16039.20 642.63 o
974 1 -6 6 6 18508.60 16039.20 642.63 o
975 3 -6 6 6 18522.50 14045.10 631.47 o
975 2 6 -6 -6 18522.50 14045.10 631.47 o
975 1 6 -6 6 18522.50 14045.10 631.47 o
976 3 5 -6 6 278.44 538.07 553.84 <
976 1 -5 6 6 278.44 538.07 553.84 <
977 3 -5 6 6 276.54 -229.47 538.05 <
977 1 5 -6 6 276.54 -229.47 538.05 <
978 3 4 -6 6 5017.55 5879.18 607.17 o
978 2 -6 4 -6 5017.55 5879.18 607.17 o
978 1 -4 6 6 5017.55 5879.18 607.17 o
979 3 -4 6 6 5003.73 4264.98 602.84 o
979 2 6 -4 -6 5003.73 4264.98 602.84 o
979 1 4 -6 6 5003.73 4264.98 602.84 o
980 3 3 -6 6 851.32 411.46 561.92 <
980 1 -3 6 6 851.32 411.46 561.92 <
981 3 -3 6 6 862.17 -87.04 561.91 <
981 1 3 -6 6 862.17 -87.04 561.91 <
982 3 2 -6 6 80021.30 74878.40 962.77 o
982 2 -6 2 -6 80021.30 74878.40 962.77 o
982 1 -2 6 6 80021.30 74878.40 962.77 o
983 3 -2 6 6 79973.20 77727.00 870.78 o
983 2 6 -2 -6 79973.20 77727.00 870.78 o
983 1 2 -6 6 79973.20 77727.00 870.78 o
984 3 1 -6 6 1338.68 1819.93 656.43 o
984 1 -1 6 6 1338.68 1819.93 656.43 o
985 3 -1 6 6 1326.82 1012.83 625.26 <
985 1 1 -6 6 1326.82 1012.83 625.26 <
986 3 0 -6 6 10430.50 9653.56 699.27 o
986 2 -6 0 -6 10430.50 9653.56 699.27 o
986 1 0 6 6 10430.50 9653.56 699.27 o
987 3 0 6 6 10494.80 8648.64 616.72 o
987 2 6 0 -6 10494.80 8648.64 616.72 o
987 1 0 -6 6 10494.80 8648.64 616.72 o
988 3 -1 -6 6 1338.68 1566.73 664.53 o
988 1 1 6 6 1338.68 1566.73 664.53 o
989 3 1 6 6 1326.82 1384.73 656.73 o
989 1 -1 -6 6 1326.82 1384.73 656.73 o
990 3 -2 -6 6 80052.70 79523.20 1023.88 o
990 2 -6 -2 -6 80052.70 79523.20 1023.88 o
990 1 2 6 6 80052.70 79523.20 1023.88 o
991 3 2 6 6 79941.80 86874.10 806.27 o
991 2 6 2 -6 79941.80 86874.10 806.27 o
991 1 -2 -6 6 79941.80 86874.10 806.27 o
992 3 -3 -6 6 851.32 435.20 601.47 <
992 1 3 6 6 851.32 435.20 601.47 <
993 3 3 6 6 862.18 640.93 625.17 <
993 1 -3 -6 6 862.18 640.93 625.17 <
994 3 -4 -6 6 4981.97 5918.74 662.56 o
994 2 -6 -4 -6 4981.97 5918.74 662.56 o
994 1 4 6 6 4981.97 5918.74 662.56 o
995 3 4 6 6 5039.31 6591.33 644.96 o
995 2 6 4 -6 5039.31 6591.33 644.96 o
995 1 -4 -6 6 5039.31 6591.33 644.96 o
996 3 -5 -6 6 278.44 458.94 704.21 <
996 1 5 6 6 278.44 458.94 704.21 <
997 3 5 6 6 276.54 356.07 617.18 <
997 1 -5 -6 6 276.54 356.07 617.18 <
998 3 -6 -6 6 18532.30 17067.80 784.24 o
998 2 -6 -6 -6 18532.30 17067.80 784.24 o
998 1 6 6 6 18532.30 17067.80 784.24 o
999 3 6 6 6 18498.80 17202.30 712.84 o
999 2 6 6 -6 18498.80 17202.30 712.84 o
999 1 -6 -6 6 18498.80 17202.30 712.84 o
1000 3 -7 -6 6 239.16 7.91 561.82 <
1000 1 7 6 6 239.16 7.91 561.82 <
1001 3 7 6 6 240.63 1471.77 862.09 <
1001 1 -7 -6 6 240.63 1471.77 862.09 <
1002 3 -8 -6 6 355.06 1266.04 585.14 o
1002 2 -6 -8 -6 355.06 1266.04 585.14 o
1002 1 8 6 6 355.06 1266.04 585.14 o
1003 3 8 6 6 358.03 2128.53 845.81 o
1003 2 6 8 -6 358.03 2128.53 845.81 o
1003 1 -8 -6 6 358.03 2128.53 845.81 o
1004 3 7 -8 6 36.77 1661.68 584.71 o
1004 1 -7 8 6 36.77 1661.68 584.71 o
1005 3 -7 8 6 36.06 1194.83 608.87 <
1005 1 7 -8 6 36.06 1194.83 608.87 <
1006 3 6 -8 6 314.20 1574.64 592.80 o
1006 2 -8 6 -6 314.20 1574.64 592.80 o
1006 1 -6 8 6 314.20 1574.64 592.80 o
1007 3 -6 8 6 314.28 181.99 585.56 <
1007 2 8 -6 -6 314.28 181.99 585.56 <
1007 1 6 -8 6 314.28 181.99 585.56 <
1008 3 5 -8 6 168.05 -743.80 609.11 <
1008 1 -5 8 6 168.05 -743.80 609.11 <
1009 3 -5 8 6 168.18 1218.56 569.29 o
1009 1 5 -8 6 168.18 1218.56 569.29 o
1010 3 4 -8 6 14160.20 11782.10 637.74 o
1010 2 -8 4 -6 14160.20 11782.10 637.74 o
1010 1 -4 8 6 14160.20 11782.10 637.74 o
1011 3 -4 8 6 14158.60 12692.10 641.11 o
1011 2 8 -4 -6 14158.60 12692.10 641.11 o
1011 1 4 -8 6 14158.60 12692.10 641.11 o
1012 3 3 -8 6 202.71 39.56 609.29 <
1012 1 -3 8 6 202.71 39.56 609.29 <
1013 3 -3 8 6 199.62 1542.99 569.03 o
1013 1 3 -8 6 199.62 1542.99 569.03 o
1014 3 2 -8 6 1256.30 1384.73 609.21 o
1014 2 -8 2 -6 1256.30 1384.73 609.21 o
1014 1 -2 8 6 1256.30 1384.73 609.21 o
1015 3 -2 8 6 1257.05 7.91 577.88 <
1015 2 8 -2 -6 1257.05 7.91 577.88 <
1015 1 2 -8 6 1257.05 7.91 577.88 <
1016 3 1 -8 6 338.63 411.46 561.79 <
1016 1 -1 8 6 338.63 411.46 561.79 <
1017 3 -1 8 6 343.18 -7.91 577.65 <
1017 1 1 -8 6 343.18 -7.91 577.65 <
1018 3 0 -8 6 32315.40 31326.60 770.53 o
1018 2 -8 0 -6 32315.40 31326.60 770.53 o
1018 1 0 8 6 32315.40 31326.60 770.53 o
1019 3 0 8 6 32297.20 32972.40 687.80 o
1019 2 8 0 -6 32297.20 32972.40 687.80 o
1019 1 0 -8 6 32297.20 32972.40 687.80 o
1020 3 -1 -8 6 338.63 909.97 640.76 <
1020 1 1 8 6 338.63 909.97 640.76 <
1021 3 1 8 6 343.18 300.68 648.85 <
1021 1 -1 -8 6 343.18 300.68 648.85 <
1022 3 -2 -8 6 1247.78 989.09 664.78 <
1022 2 -8 -2 -6 1247.78 989.09 664.78 <
1022 1 2 8 6 1247.78 989.09 664.78 <
1023 3 2 8 6 1265.56 1732.89 632.71 o
1023 2 8 2 -6 1265.56 1732.89 632.71 o
1023 1 -2 -8 6 1265.56 1732.89 632.71 o
1024 3 -3 -8 6 202.71 514.33 680.45 <
1024 1 3 8 6 202.71 514.33 680.45 <
1025 3 3 8 6 199.62 403.55 656.73 <
1025 1 -3 -8 6 199.62 403.55 656.73 <
1026 3 -4 -8 6 14167.60 12518.00 712.35 o
1026 2 -8 -4 -6 14167.60 12518.00 712.35 o
1026 1 4 8 6 14167.60 12518.00 712.35 o
1027 3 4 8 6 14151.20 15002.60 683.54 o
1027 2 8 4 -6 14151.20 15002.60 683.54 o
1027 1 -4 -8 6 14151.20 15002.60 683.54 o
1028 3 -5 -8 6 168.05 0.00 664.67 <
1028 1 5 8 6 168.05 0.00 664.67 <
1029 3 5 8 6 168.18 118.69 640.94 <
1029 1 -5 -8 6 168.18 118.69 640.94 <
1030 3 -6 -8 6 313.22 640.93 625.03 <
1030 2 -8 -6 -6 313.22 640.93 625.03 <
1030 1 6 8 6 313.22 640.93 625.03 <
1031 3 6 8 6 315.25 783.36 672.47 <
1031 2 8 6 -6 315.25 783.36 672.47 <
1031 1 -6 -8 6 315.25 783.36 672.47 <
1032 3 -7 -8 6 36.77 -55.39 727.97 <
1032 1 7 8 6 36.77 -55.39 727.97 <
1033 3 7 8 6 36.06 435.20 727.93 <
1033 1 -7 -8 6 36.06 435.20 727.93 <
1034 3 3 -10 6 63.99 965.36 632.77 <
1034 1 -3 10 6 63.99 965.36 632.77 <
1035 3 -3 10 6 64.51 569.72 601.28 <
1035 1 3 -10 6 64.51 569.72 601.28 <
1036 3 2 -10 6 5247.63 5475.63 640.42 o
1036 2 -10 2 -6 5247.63 5475.63 640.42 o
1036 1 -2 10 6 5247.63 5475.63 640.42 o
1037 3 -2 10 6 5246.58 4217.50 658.66 o
1037 2 10 -2 -6 5246.58 4217.50 658.66 o
1037 1 2 -10 6 5246.58 4217.50 658.66 o
1038 3 1 -10 6 57.53 989.09 648.59 <
1038 1 -1 10 6 57.53 989.09 648.59 <
1039 3 -1 10 6 56.92 324.42 617.17 <
1039 1 1 -10 6 56.92 324.42 617.17 <
1040 3 0 -10 6 248.59 261.12 648.84 <
1040 2 -10 0 -6 248.59 261.12 648.84 <
1040 1 0 10 6 248.59 261.12 648.84 <
1041 3 0 10 6 250.17 498.50 625.06 <
1041 2 10 0 -6 250.17 498.50 625.06 <
1041 1 0 -10 6 250.17 498.50 625.06 <
1042 3 -1 -10 6 57.53 1345.17 656.28 o
1042 1 1 10 6 57.53 1345.17 656.28 o
1043 3 1 10 6 56.92 759.63 593.29 <
1043 1 -1 -10 6 56.92 759.63 593.29 <
1044 3 -2 -10 6 5248.66 3101.80 746.73 o
1044 2 -10 -2 -6 5248.66 3101.80 746.73 o
1044 1 2 10 6 5248.66 3101.80 746.73 o
1045 3 2 10 6 5245.55 5681.36 679.55 o
1045 2 10 2 -6 5245.55 5681.36 679.55 o
1045 1 -2 -10 6 5245.55 5681.36 679.55 o
1046 3 -3 -10 6 63.99 498.50 727.92 <
1046 1 3 10 6 63.99 498.50 727.92 <
1047 3 3 10 6 64.51 656.76 696.22 <
1047 1 -3 -10 6 64.51 656.76 696.22 <
1048 3 -10 1 7 63.01 704.23 403.34 <
1048 1 10 -1 7 63.01 704.23 403.34 <
1049 3 -9 1 7 202.58 633.02 403.41 <
1049 2 1 -9 -7 202.58 633.02 403.41 <
1049 1 9 -1 7 202.58 633.02 403.41 <
1050 3 -8 1 7 107.08 -87.04 435.20 <
1050 1 8 -1 7 107.08 -87.04 435.20 <
1051 3 7 -1 7 1195.58 1487.60 791.14 <
1051 2 -1 7 -7 1195.58 1487.60 791.14 <
1051 1 -7 1 7 1195.58 1487.60 791.14 <
1052 3 -7 1 7 1191.54 1922.80 513.69 o
1052 2 1 -7 -7 1191.54 1922.80 513.69 o
1052 1 7 -1 7 1191.54 1922.80 513.69 o
1053 3 6 -1 7 2092.79 1091.96 712.68 <
1053 1 -6 1 7 2092.79 1091.96 712.68 <
1054 3 -6 1 7 2100.00 1440.12 435.87 o
1054 1 6 -1 7 2100.00 1440.12 435.87 o
1055 3 5 -1 7 1224.34 1202.74 735.90 <
1055 2 -1 5 -7 1224.34 1202.74 735.90 <
1055 1 -5 1 7 1224.34 1202.74 735.90 <
1056 3 -5 1 7 1213.94 1305.60 435.13 o
1056 2 1 -5 -7 1213.94 1305.60 435.13 o
1056 1 5 -1 7 1213.94 1305.60 435.13 o
1057 3 4 -1 7 8958.88 7445.90 874.08 o
1057 1 -4 1 7 8958.88 7445.90 874.08 o
1058 3 -4 1 7 8966.72 8632.82 515.84 o
1058 1 4 -1 7 8966.72 8632.82 515.84 o
1059 3 3 -1 7 2086.74 1804.11 925.95 <
1059 2 -1 3 -7 2086.74 1804.11 925.95 <
1059 1 -3 1 7 2086.74 1804.11 925.95 <
1060 3 -3 1 7 2074.63 2096.88 593.44 o
1060 2 1 -3 -7 2074.63 2096.88 593.44 o
1060 1 3 -1 7 2074.63 2096.88 593.44 o
1061 3 2 -1 7 11831.80 10943.30 1118.08 o
1061 1 -2 1 7 11831.80 10943.30 1118.08 o
1062 3 -2 1 7 11823.80 11402.30 690.29 o
1062 1 2 -1 7 11823.80 11402.30 690.29 o
1063 3 1 -1 7 2904.00 925.79 1678.00 <
1063 2 -1 1 -7 2904.00 925.79 1678.00 <
1063 1 -1 1 7 2904.00 925.79 1678.00 <
1064 3 -1 1 7 3030.68 71.21 895.07 <
1064 2 1 -1 -7 3030.68 71.21 895.07 <
1064 1 1 -1 7 3030.68 71.21 895.07 <
1065 3 -1 -1 7 3119.55 31.65 1417.00 <
1065 2 -1 -1 -7 3119.55 31.65 1417.00 <
1065 1 1 1 7 3119.55 31.65 1417.00 <
1066 3 1 1 7 2815.15 538.07 1337.84 <
1066 2 1 1 -7 2815.15 538.07 1337.84 <
1066 1 -1 -1 7 2815.15 538.07 1337.84 <
1067 3 -2 -1 7 11831.70 11188.60 951.59 o
1067 1 2 1 7 11831.70 11188.60 951.59 o
1068 3 2 1 7 11823.80 10381.50 922.42 o
1068 1 -2 -1 7 11823.80 10381.50 922.42 o
1069 3 -3 -1 7 2092.64 2342.18 727.77 o
1069 2 -1 -3 -7 2092.64 2342.18 727.77 o
1069 1 3 1 7 2092.64 2342.18 727.77 o
1070 3 3 1 7 2068.71 2017.75 1036.60 <
1070 2 1 3 -7 2068.71 2017.75 1036.60 <
1070 1 -3 -1 7 2068.71 2017.75 1036.60 <
1071 3 -4 -1 7 8958.86 7873.19 628.91 o
1071 1 4 1 7 8958.86 7873.19 628.91 o
1072 3 4 1 7 8966.71 7295.56 874.41 o
1072 1 -4 -1 7 8966.71 7295.56 874.41 o
1073 3 -5 -1 7 1208.28 490.59 490.88 <
1073 2 -1 -5 -7 1208.28 490.59 490.88 <
1073 1 5 1 7 1208.28 490.59 490.88 <
1074 3 5 1 7 1230.01 1416.38 791.19 <
1074 2 1 5 -7 1230.01 1416.38 791.19 <
1074 1 -5 -1 7 1230.01 1416.38 791.19 <
1075 3 -6 -1 7 2092.79 1020.75 396.63 o
1075 1 6 1 7 2092.79 1020.75 396.63 o
1076 3 -7 -1 7 1191.31 1804.11 394.98 o
1076 2 -1 -7 -7 1191.31 1804.11 394.98 o
1076 1 7 1 7 1191.31 1804.11 394.98 o
1077 3 -8 -1 7 105.51 55.39 403.55 <
1077 1 8 1 7 105.51 55.39 403.55 <
1078 3 -9 -1 7 201.47 -63.30 403.55 <
1078 2 -1 -9 -7 201.47 -63.30 403.55 <
1078 1 9 1 7 201.47 -63.30 403.55 <
1079 3 -10 -1 7 62.87 435.20 419.30 <
1079 1 10 1 7 62.87 435.20 419.30 <
1080 3 -10 3 7 177.97 1511.34 505.67 o
1080 1 10 -3 7 177.97 1511.34 505.67 o
1081 3 9 -3 7 544.32 1661.68 846.21 <
1081 2 -3 9 -7 544.32 1661.68 846.21 <
1081 1 -9 3 7 544.32 1661.68 846.21 <
1082 3 -9 3 7 544.54 712.15 474.70 <
1082 2 3 -9 -7 544.54 712.15 474.70 <
1082 1 9 -3 7 544.54 712.15 474.70 <
1083 3 8 -3 7 355.09 712.15 799.12 <
1083 1 -8 3 7 355.09 712.15 799.12 <
1084 3 -8 3 7 358.12 799.19 458.77 <
1084 1 8 -3 7 358.12 799.19 458.77 <
1085 3 7 -3 7 201.03 1266.04 743.45 <
1085 2 -3 7 -7 201.03 1266.04 743.45 <
1085 1 -7 3 7 201.03 1266.04 743.45 <
1086 3 -7 3 7 203.52 205.73 474.77 <
1086 2 3 -7 -7 203.52 205.73 474.77 <
1086 1 7 -3 7 203.52 205.73 474.77 <
1087 3 6 -3 7 619.95 1266.04 751.47 <
1087 1 -6 3 7 619.95 1266.04 751.47 <
1088 3 -6 3 7 628.93 356.07 569.78 <
1088 1 6 -3 7 628.93 356.07 569.78 <
1089 3 5 -3 7 2701.94 3362.92 497.39 o
1089 2 -3 5 -7 2701.94 3362.92 497.39 o
1089 1 -5 3 7 2701.94 3362.92 497.39 o
1090 3 -5 3 7 2705.90 3465.79 552.72 o
1090 2 3 -5 -7 2705.90 3465.79 552.72 o
1090 1 5 -3 7 2705.90 3465.79 552.72 o
1091 3 4 -3 7 2129.58 1107.79 530.90 o
1091 1 -4 3 7 2129.58 1107.79 530.90 o
1092 3 -4 3 7 2143.59 1622.11 538.53 o
1092 1 4 -3 7 2143.59 1622.11 538.53 o
1093 3 3 -3 7 916.61 427.29 625.23 <
1093 2 -3 3 -7 916.61 427.29 625.23 <
1093 1 -3 3 7 916.61 427.29 625.23 <
1094 3 -3 3 7 903.76 743.80 577.69 <
1094 2 3 -3 -7 903.76 743.80 577.69 <
1094 1 3 -3 7 903.76 743.80 577.69 <
1095 3 2 -3 7 1544.48 1448.03 648.91 o
1095 1 -2 3 7 1544.48 1448.03 648.91 o
1096 3 -2 3 7 1539.93 2231.40 703.71 o
1096 1 2 -3 7 1539.93 2231.40 703.71 o
1097 3 1 -3 7 2558.32 2096.88 759.99 o
1097 2 -3 1 -7 2558.32 2096.88 759.99 o
1097 1 -1 3 7 2558.32 2096.88 759.99 o
1098 3 -1 3 7 2599.51 2088.97 680.95 o
1098 2 3 -1 -7 2599.51 2088.97 680.95 o
1098 1 1 -3 7 2599.51 2088.97 680.95 o
1099 3 -1 -3 7 2601.93 2176.01 957.72 o
1099 2 -3 -1 -7 2601.93 2176.01 957.72 o
1099 1 1 3 7 2601.93 2176.01 957.72 o
1100 3 1 3 7 2555.88 2563.73 949.53 o
1100 2 3 1 -7 2555.88 2563.73 949.53 o
1100 1 -1 -3 7 2555.88 2563.73 949.53 o
1101 3 -2 -3 7 1544.48 1590.46 933.68 <
1101 1 2 3 7 1544.48 1590.46 933.68 <
1102 3 2 3 7 1539.93 2033.58 830.54 o
1102 1 -2 -3 7 1539.93 2033.58 830.54 o
1103 3 -3 -3 7 894.75 1273.95 727.81 <
1103 2 -3 -3 -7 894.75 1273.95 727.81 <
1103 1 3 3 7 894.75 1273.95 727.81 <
1104 3 3 3 7 925.63 451.03 704.34 <
1104 2 3 3 -7 925.63 451.03 704.34 <
1104 1 -3 -3 7 925.63 451.03 704.34 <
1105 3 -4 -3 7 2129.59 1455.95 546.53 o
1105 1 4 3 7 2129.59 1455.95 546.53 o
1106 3 4 3 7 2143.60 838.75 760.21 <
1106 1 -4 -3 7 2143.60 838.75 760.21 <
1107 3 -5 -3 7 2719.05 2975.20 498.11 o
1107 2 -3 -5 -7 2719.05 2975.20 498.11 o
1107 1 5 3 7 2719.05 2975.20 498.11 o
1108 3 5 3 7 2688.77 3362.92 750.96 o
1108 2 3 5 -7 2688.77 3362.92 750.96 o
1108 1 -5 -3 7 2688.77 3362.92 750.96 o
1109 3 -6 -3 7 619.95 664.67 490.58 <
1109 1 6 3 7 619.95 664.67 490.58 <
1110 3 6 3 7 628.93 909.97 878.25 <
1110 1 -6 -3 7 628.93 909.97 878.25 <
1111 3 -7 -3 7 201.26 933.71 490.32 <
1111 2 -3 -7 -7 201.26 933.71 490.32 <
1111 1 7 3 7 201.26 933.71 490.32 <
1112 3 7 3 7 203.28 846.66 814.88 <
1112 2 3 7 -7 203.28 846.66 814.88 <
1112 1 -7 -3 7 203.28 846.66 814.88 <
1113 3 -8 -3 7 355.09 308.60 411.47 <
1113 1 8 3 7 355.09 308.60 411.47 <
1114 3 -9 -3 7 544.38 925.79 442.93 o
1114 2 -3 -9 -7 544.38 925.79 442.93 o
1114 1 9 3 7 544.38 925.79 442.93 o
1115 3 -10 -3 7 178.31 1139.44 426.80 o
1115 1 10 3 7 178.31 1139.44 426.80 o
1116 3 9 -5 7 28.13 1661.68 814.42 o
1116 2 -5 9 -7 28.13 1661.68 814.42 o
1116 1 -9 5 7 28.13 1661.68 814.42 o
1117 3 -9 5 7 28.35 609.28 490.46 <
1117 2 5 -9 -7 28.35 609.28 490.46 <
1117 1 9 -5 7 28.35 609.28 490.46 <
1118 3 8 -5 7 327.42 870.40 799.06 <
1118 1 -8 5 7 327.42 870.40 799.06 <
1119 3 -8 5 7 326.88 -688.41 545.81 <
1119 1 8 -5 7 326.88 -688.41 545.81 <
1120 3 7 -5 7 1334.40 1653.77 561.57 o
1120 2 -5 7 -7 1334.40 1653.77 561.57 o
1120 1 -7 5 7 1334.40 1653.77 561.57 o
1121 3 -7 5 7 1331.37 2144.36 569.01 o
1121 2 5 -7 -7 1331.37 2144.36 569.01 o
1121 1 7 -5 7 1331.37 2144.36 569.01 o
1122 3 6 -5 7 405.45 -553.89 545.87 <
1122 1 -6 5 7 405.45 -553.89 545.87 <
1123 3 -6 5 7 410.83 79.13 530.19 <
1123 1 6 -5 7 410.83 79.13 530.19 <
1124 3 5 -5 7 145.50 1226.48 608.87 o
1124 2 -5 5 -7 145.50 1226.48 608.87 o
1124 1 -5 5 7 145.50 1226.48 608.87 o
1125 3 -5 5 7 145.23 458.94 585.49 <
1125 2 5 -5 -7 145.23 458.94 585.49 <
1125 1 5 -5 7 145.23 458.94 585.49 <
1126 3 4 -5 7 318.48 569.72 561.75 <
1126 1 -4 5 7 318.48 569.72 561.75 <
1127 3 -4 5 7 320.53 490.59 530.12 <
1127 1 4 -5 7 320.53 490.59 530.12 <
1128 3 3 -5 7 2777.57 2991.02 561.51 o
1128 2 -5 3 -7 2777.57 2991.02 561.51 o
1128 1 -3 5 7 2777.57 2991.02 561.51 o
1129 3 -3 5 7 2802.36 3220.49 553.27 o
1129 2 5 -3 -7 2802.36 3220.49 553.27 o
1129 1 3 -5 7 2802.36 3220.49 553.27 o
1130 3 2 -5 7 157.67 387.73 553.86 <
1130 1 -2 5 7 157.67 387.73 553.86 <
1131 3 -2 5 7 156.91 0.00 609.29 <
1131 1 2 -5 7 156.91 0.00 609.29 <
1132 3 1 -5 7 1321.70 2017.75 600.82 o
1132 2 -5 1 -7 1321.70 2017.75 600.82 o
1132 1 -1 5 7 1321.70 2017.75 600.82 o
1133 3 -1 5 7 1314.57 1194.83 585.61 o
1133 2 5 -1 -7 1314.57 1194.83 585.61 o
1133 1 1 -5 7 1314.57 1194.83 585.61 o
1134 3 -1 -5 7 1307.97 997.01 648.99 <
1134 2 -5 -1 -7 1307.97 997.01 648.99 <
1134 1 1 5 7 1307.97 997.01 648.99 <
1135 3 1 5 7 1328.31 1107.79 656.86 <
1135 2 5 1 -7 1328.31 1107.79 656.86 <
1135 1 -1 -5 7 1328.31 1107.79 656.86 <
1136 3 -2 -5 7 157.67 696.32 680.39 <
1136 1 2 5 7 157.67 696.32 680.39 <
1137 3 2 5 7 156.91 379.81 648.82 <
1137 1 -2 -5 7 156.91 379.81 648.82 <
1138 3 -3 -5 7 2809.41 3062.24 703.95 o
1138 2 -5 -3 -7 2809.41 3062.24 703.95 o
1138 1 3 5 7 2809.41 3062.24 703.95 o
1139 3 3 5 7 2770.50 3631.95 655.59 o
1139 2 5 3 -7 2770.50 3631.95 655.59 o
1139 1 -3 -5 7 2770.50 3631.95 655.59 o
1140 3 -4 -5 7 318.48 -150.34 664.67 <
1140 1 4 5 7 318.48 -150.34 664.67 <
1141 3 4 5 7 320.53 276.95 640.94 <
1141 1 -4 -5 7 320.53 276.95 640.94 <
1142 3 -5 -5 7 145.04 458.94 648.80 <
1142 2 -5 -5 -7 145.04 458.94 648.80 <
1142 1 5 5 7 145.04 458.94 648.80 <
1143 3 5 5 7 145.69 221.56 585.54 <
1143 2 5 5 -7 145.69 221.56 585.54 <
1143 1 -5 -5 7 145.69 221.56 585.54 <
1144 3 -6 -5 7 405.45 134.52 530.18 <
1144 1 6 5 7 405.45 134.52 530.18 <
1145 3 6 5 7 410.83 -79.13 783.38 <
1145 1 -6 -5 7 410.83 -79.13 783.38 <
1146 3 -7 -5 7 1328.88 1748.72 490.22 o
1146 2 -5 -7 -7 1328.88 1748.72 490.22 o
1146 1 7 5 7 1328.88 1748.72 490.22 o
1147 3 7 5 7 1336.89 1875.32 759.30 o
1147 2 5 7 -7 1336.89 1875.32 759.30 o
1147 1 -7 -5 7 1336.89 1875.32 759.30 o
1148 3 -8 -5 7 327.42 435.20 545.96 <
1148 1 8 5 7 327.42 435.20 545.96 <
1149 3 8 5 7 326.89 63.30 799.20 <
1149 1 -8 -5 7 326.89 63.30 799.20 <
1150 3 -9 -5 7 28.52 886.23 442.80 <
1150 2 -5 -9 -7 28.52 886.23 442.80 <
1150 1 9 5 7 28.52 886.23 442.80 <
1151 3 8 -7 7 129.68 435.20 609.24 <
1151 1 -8 7 7 129.68 435.20 609.24 <
1152 3 -8 7 7 130.65 1440.12 592.87 o
1152 1 8 -7 7 130.65 1440.12 592.87 o
1153 3 7 -7 7 28.98 -474.77 601.30 <
1153 2 -7 7 -7 28.98 -474.77 601.30 <
1153 1 -7 7 7 28.98 -474.77 601.30 <
1154 3 -7 7 7 29.30 197.82 569.71 <
1154 2 7 -7 -7 29.30 197.82 569.71 <
1154 1 7 -7 7 29.30 197.82 569.71 <
1155 3 6 -7 7 249.35 71.21 601.38 <
1155 1 -6 7 7 249.35 71.21 601.38 <
1156 3 -6 7 7 248.34 743.80 585.41 <
1156 1 6 -7 7 248.34 743.80 585.41 <
1157 3 5 -7 7 1425.97 1867.41 553.53 o
1157 2 -7 5 -7 1425.97 1867.41 553.53 o
1157 1 -5 7 7 1425.97 1867.41 553.53 o
1158 3 -5 7 7 1422.21 1519.25 538.00 o
1158 2 7 -5 -7 1422.21 1519.25 538.00 o
1158 1 5 -7 7 1422.21 1519.25 538.00 o
1159 3 4 -7 7 155.45 63.30 569.72 <
1159 1 -4 7 7 155.45 63.30 569.72 <
1160 3 -4 7 7 156.88 672.58 553.77 <
1160 1 4 -7 7 156.88 672.58 553.77 <
1161 3 3 -7 7 245.87 0.00 538.08 <
1161 2 -7 3 -7 245.87 0.00 538.08 <
1161 1 -3 7 7 245.87 0.00 538.08 <
1162 3 -3 7 7 240.31 300.68 506.41 <
1162 2 7 -3 -7 240.31 300.68 506.41 <
1162 1 3 -7 7 240.31 300.68 506.41 <
1163 3 2 -7 7 66.40 593.46 585.44 <
1163 1 -2 7 7 66.40 593.46 585.44 <
1164 3 -2 7 7 66.00 712.15 624.97 <
1164 1 2 -7 7 66.00 712.15 624.97 <
1165 3 1 -7 7 1341.93 1661.68 640.73 o
1165 2 -7 1 -7 1341.93 1661.68 640.73 o
1165 1 -1 7 7 1341.93 1661.68 640.73 o
1166 3 -1 7 7 1343.12 2168.09 624.44 o
1166 2 7 -1 -7 1343.12 2168.09 624.44 o
1166 1 1 -7 7 1343.12 2168.09 624.44 o
1167 3 -1 -7 7 1341.37 1273.95 656.79 <
1167 2 -7 -1 -7 1341.37 1273.95 656.79 <
1167 1 1 7 7 1341.37 1273.95 656.79 <
1168 3 1 7 7 1343.68 1313.52 640.95 o
1168 2 7 1 -7 1343.68 1313.52 640.95 o
1168 1 -1 -7 7 1343.68 1313.52 640.95 o
1169 3 -2 -7 7 66.40 997.01 609.00 <
1169 1 2 7 7 66.40 997.01 609.00 <
1170 3 2 7 7 65.99 110.78 625.11 <
1170 1 -2 -7 7 65.99 110.78 625.11 <
1171 3 -3 -7 7 240.41 -340.25 656.72 <
1171 2 -7 -3 -7 240.41 -340.25 656.72 <
1171 1 3 7 7 240.41 -340.25 656.72 <
1172 3 3 7 7 245.76 775.45 648.72 <
1172 2 7 3 -7 245.76 775.45 648.72 <
1172 1 -3 -7 7 245.76 775.45 648.72 <
1173 3 -4 -7 7 155.45 411.46 696.29 <
1173 1 4 7 7 155.45 411.46 696.29 <
1174 3 4 7 7 156.88 498.50 664.62 <
1174 1 -4 -7 7 156.88 498.50 664.62 <
1175 3 -5 -7 7 1419.94 1732.89 680.30 o
1175 2 -7 -5 -7 1419.94 1732.89 680.30 o
1175 1 5 7 7 1419.94 1732.89 680.30 o
1176 3 5 7 7 1428.24 1906.97 601.00 o
1176 2 7 5 -7 1428.24 1906.97 601.00 o
1176 1 -5 -7 7 1428.24 1906.97 601.00 o
1177 3 -6 -7 7 249.35 1574.64 656.15 o
1177 1 6 7 7 249.35 1574.64 656.15 o
1178 3 6 7 7 248.34 538.07 648.79 <
1178 1 -6 -7 7 248.34 538.07 648.79 <
1179 3 -7 -7 7 29.52 838.75 545.76 <
1179 2 -7 -7 -7 29.52 838.75 545.76 <
1179 1 7 7 7 29.52 838.75 545.76 <
1180 3 7 7 7 28.76 63.30 862.49 <
1180 2 7 7 -7 28.76 63.30 862.49 <
1180 1 -7 -7 7 28.76 63.30 862.49 <
1181 3 -8 -7 7 129.68 403.55 593.42 <
1181 1 8 7 7 129.68 403.55 593.42 <
1182 3 8 7 7 130.65 791.28 870.29 <
1182 1 -8 -7 7 130.65 791.28 870.29 <
1183 3 5 -9 7 36.94 1661.68 616.41 o
1183 2 -9 5 -7 36.94 1661.68 616.41 o
1183 1 -5 9 7 36.94 1661.68 616.41 o
1184 3 -5 9 7 37.19 -743.80 577.46 <
1184 2 9 -5 -7 37.19 -743.80 577.46 <
1184 1 5 -9 7 37.19 -743.80 577.46 <
1185 3 4 -9 7 67.44 854.58 593.25 <
1185 1 -4 9 7 67.44 854.58 593.25 <
1186 3 -4 9 7 67.00 205.73 593.45 <
1186 1 4 -9 7 67.00 205.73 593.45 <
1187 3 3 -9 7 656.53 1266.04 664.41 <
1187 2 -9 3 -7 656.53 1266.04 664.41 <
1187 1 -3 9 7 656.53 1266.04 664.41 <
1188 3 -3 9 7 656.12 371.90 593.52 <
1188 2 9 -3 -7 656.12 371.90 593.52 <
1188 1 3 -9 7 656.12 371.90 593.52 <
1189 3 2 -9 7 14.03 308.60 625.08 <
1189 1 -2 9 7 14.03 308.60 625.08 <
1190 3 -2 9 7 14.11 989.09 601.08 <
1190 1 2 -9 7 14.11 989.09 601.08 <
1191 3 1 -9 7 265.66 854.58 672.43 <
1191 2 -9 1 -7 265.66 854.58 672.43 <
1191 1 -1 9 7 265.66 854.58 672.43 <
1192 3 -1 9 7 262.96 791.28 561.65 <
1192 2 9 -1 -7 262.96 791.28 561.65 <
1192 1 1 -9 7 262.96 791.28 561.65 <
1193 3 -1 -9 7 262.98 854.58 680.34 <
1193 2 -9 -1 -7 262.98 854.58 680.34 <
1193 1 1 9 7 262.98 854.58 680.34 <
1194 3 1 9 7 265.64 593.46 601.30 <
1194 2 9 1 -7 265.64 593.46 601.30 <
1194 1 -1 -9 7 265.64 593.46 601.30 <
1195 3 -2 -9 7 14.03 569.72 625.02 <
1195 1 2 9 7 14.03 569.72 625.02 <
1196 3 2 9 7 14.11 656.76 617.07 <
1196 1 -2 -9 7 14.11 656.76 617.07 <
1197 3 -3 -9 7 656.14 1107.79 688.24 <
1197 2 -9 -3 -7 656.14 1107.79 688.24 <
1197 1 3 9 7 656.14 1107.79 688.24 <
1198 3 3 9 7 656.50 443.11 656.80 <
1198 2 9 3 -7 656.50 443.11 656.80 <
1198 1 -3 -9 7 656.50 443.11 656.80 <
1199 3 -4 -9 7 67.44 712.15 664.54 <
1199 1 4 9 7 67.44 712.15 664.54 <
1200 3 4 9 7 67.00 1020.75 680.23 <
1200 1 -4 -9 7 67.00 1020.75 680.23 <
1201 3 -5 -9 7 37.35 269.03 751.70 <
1201 2 -9 -5 -7 37.35 269.03 751.70 <
1201 1 5 9 7 37.35 269.03 751.70 <
1202 3 5 9 7 36.78 363.99 704.20 <
1202 2 9 5 -7 36.78 363.99 704.20 <
1202 1 -5 -9 7 36.78 363.99 704.20 <
1203 3 0 0 8 90.53 253.21 1242.30 <
1203 2 0 0 -8 90.53 253.21 1242.30 <
1203 1 0 0 8 90.53 253.21 1242.30 <
1204 3 -1 0 8 78.33 -110.78 989.09 <
1204 1 1 0 8 78.33 -110.78 989.09 <
1205 3 1 0 8 78.33 31.65 1044.48 <
1205 1 -1 0 8 78.33 31.65 1044.48 <
1206 3 -2 0 8 29186.00 31113.00 1005.29 o
1206 2 0 -2 -8 29186.00 31113.00 1005.29 o
1206 1 2 0 8 29186.00 31113.00 1005.29 o
1207 3 2 0 8 28924.60 32015.00 946.67 o
1207 2 0 2 -8 28924.60 32015.00 946.67 o
1207 1 -2 0 8 28924.60 32015.00 946.67 o
1208 3 -3 0 8 4565.82 5119.55 774.51 o
1208 1 3 0 8 4565.82 5119.55 774.51 o
1209 3 3 0 8 4565.82 5064.16 679.54 o
1209 1 -3 0 8 4565.82 5064.16 679.54 o
1210 3 -4 0 8 13805.90 14432.90 692.90 o
1210 2 0 -4 -8 13805.90 14432.90 692.90 o
1210 1 4 0 8 13805.90 14432.90 692.90 o
1211 3 4 0 8 13774.70 14773.10 993.14 o
1211 2 0 4 -8 13774.70 14773.10 993.14 o
1211 1 -4 0 8 13774.70 14773.10 993.14 o
1212 3 -5 0 8 352.19 791.28 466.69 <
1212 1 5 0 8 352.19 791.28 466.69 <
1213 3 5 0 8 352.19 -71.21 759.64 <
1213 1 -5 0 8 352.19 -71.21 759.64 <
1214 3 -6 0 8 965.59 704.23 451.15 <
1214 2 0 -6 -8 965.59 704.23 451.15 <
1214 1 6 0 8 965.59 704.23 451.15 <
1215 3 6 0 8 976.88 1622.11 759.31 o
1215 2 0 6 -8 976.88 1622.11 759.31 o
1215 1 -6 0 8 976.88 1622.11 759.31 o
1216 3 -7 0 8 180.20 498.50 458.87 <
1216 1 7 0 8 180.20 498.50 458.87 <
1217 3 -8 0 8 2820.97 4676.44 422.56 o
1217 2 0 -8 -8 2820.97 4676.44 422.56 o
1217 1 8 0 8 2820.97 4676.44 422.56 o
1218 3 -9 0 8 87.57 -245.29 403.52 <
1218 1 9 0 8 87.57 -245.29 403.52 <
1219 3 -10 0 8 92.04 451.03 387.64 <
1219 2 0 -10 -8 92.04 451.03 387.64 <
1219 1 10 0 8 92.04 451.03 387.64 <
1220 3 -10 2 8 337.60 759.63 442.96 <
1220 2 2 -10 -8 337.60 759.63 442.96 <
1220 1 10 -2 8 337.60 759.63 442.96 <
1221 3 9 -2 8 119.15 593.46 830.77 <
1221 1 -9 2 8 119.15 593.46 830.77 <
1222 3 -9 2 8 119.06 1068.22 474.36 o
1222 1 9 -2 8 119.06 1068.22 474.36 o
1223 3 8 -2 8 340.86 1527.16 798.74 <
1223 2 -2 8 -8 340.86 1527.16 798.74 <
1223 1 -8 2 8 340.86 1527.16 798.74 <
1224 3 -8 2 8 333.52 1266.04 434.65 o
1224 2 2 -8 -8 333.52 1266.04 434.65 o
1224 1 8 -2 8 333.52 1266.04 434.65 o
1225 3 7 -2 8 358.52 1503.42 798.76 <
1225 1 -7 2 8 358.52 1503.42 798.76 <
1226 3 -7 2 8 356.23 387.73 458.93 <
1226 1 7 -2 8 356.23 387.73 458.93 <
1227 3 6 -2 8 6538.13 8253.00 778.87 o
1227 2 -2 6 -8 6538.13 8253.00 778.87 o
1227 1 -6 2 8 6538.13 8253.00 778.87 o
1228 3 -6 2 8 6560.89 8949.33 455.59 o
1228 2 2 -6 -8 6560.89 8949.33 455.59 o
1228 1 6 -2 8 6560.89 8949.33 455.59 o
1229 3 5 -2 8 1002.48 712.15 728.06 <
1229 1 -5 2 8 1002.48 712.15 728.06 <
1230 3 -5 2 8 1021.64 308.60 443.35 <
1230 1 5 -2 8 1021.64 308.60 443.35 <
1231 3 4 -2 8 1961.41 656.76 760.12 <
1231 2 -2 4 -8 1961.41 656.76 760.12 <
1231 1 -4 2 8 1961.41 656.76 760.12 <
1232 3 -4 2 8 1914.73 585.54 570.36 <
1232 2 2 -4 -8 1914.73 585.54 570.36 <
1232 1 4 -2 8 1914.73 585.54 570.36 <
1233 3 3 -2 8 952.02 720.06 846.72 <
1233 1 -3 2 8 952.02 720.06 846.72 <
1234 3 -3 2 8 975.75 419.38 633.16 <
1234 1 3 -2 8 975.75 419.38 633.16 <
1235 3 2 -2 8 8194.44 8205.53 720.03 o
1235 2 -2 2 -8 8194.44 8205.53 720.03 o
1235 1 -2 2 8 8194.44 8205.53 720.03 o
1236 3 -2 2 8 8215.55 8846.46 725.97 o
1236 2 2 -2 -8 8215.55 8846.46 725.97 o
1236 1 2 -2 8 8215.55 8846.46 725.97 o
1237 3 1 -2 8 2069.54 2555.82 759.22 o
1237 1 -1 2 8 2069.54 2555.82 759.22 o
1238 3 -1 2 8 2116.05 2634.95 814.60 o
1238 1 1 -2 8 2116.05 2634.95 814.60 o
1239 3 0 -2 8 26017.70 31405.70 1166.83 o
1239 2 -2 0 -8 26017.70 31405.70 1166.83 o
1239 1 0 2 8 26017.70 31405.70 1166.83 o
1240 3 0 2 8 25910.10 31500.70 1034.26 o
1240 2 2 0 -8 25910.10 31500.70 1034.26 o
1240 1 0 -2 8 25910.10 31500.70 1034.26 o
1241 3 -1 -2 8 2069.55 2571.65 1115.41 o
1241 1 1 2 8 2069.55 2571.65 1115.41 o
1242 3 1 2 8 2116.04 2365.91 1218.44 <
1242 1 -1 -2 8 2116.04 2365.91 1218.44 <
1243 3 -2 -2 8 8230.40 8806.90 971.91 o
1243 2 -2 -2 -8 8230.40 8806.90 971.91 o
1243 1 2 2 8 8230.40 8806.90 971.91 o
1244 3 2 2 8 8179.60 8886.02 1153.85 o
1244 2 2 2 -8 8179.60 8886.02 1153.85 o
1244 1 -2 -2 8 8179.60 8886.02 1153.85 o
1245 3 -3 -2 8 952.01 593.46 633.13 <
1245 1 3 2 8 952.01 593.46 633.13 <
1246 3 3 2 8 975.75 -47.48 894.23 <
1246 1 -3 -2 8 975.75 -47.48 894.23 <
1247 3 -4 -2 8 1909.54 1305.60 546.42 o
1247 2 -2 -4 -8 1909.54 1305.60 546.42 o
1247 1 4 2 8 1909.54 1305.60 546.42 o
1248 3 4 2 8 1966.62 640.93 815.48 <
1248 2 2 4 -8 1966.62 640.93 815.48 <
1248 1 -4 -2 8 1966.62 640.93 815.48 <
1249 3 -5 -2 8 1002.48 957.44 506.44 <
1249 1 5 2 8 1002.48 957.44 506.44 <
1250 3 5 2 8 1021.64 1202.74 759.55 <
1250 1 -5 -2 8 1021.64 1202.74 759.55 <
1251 3 -6 -2 8 6576.83 8300.48 515.40 o
1251 2 -2 -6 -8 6576.83 8300.48 515.40 o
1251 1 6 2 8 6576.83 8300.48 515.40 o
1252 3 6 2 8 6522.20 8158.05 802.98 o
1252 2 2 6 -8 6522.20 8158.05 802.98 o
1252 1 -6 -2 8 6522.20 8158.05 802.98 o
1253 3 -7 -2 8 358.52 -134.52 387.73 <
1253 1 7 2 8 358.52 -134.52 387.73 <
1254 3 -8 -2 8 334.42 696.32 419.24 <
1254 2 -2 -8 -8 334.42 696.32 419.24 <
1254 1 8 2 8 334.42 696.32 419.24 <
1255 3 -9 -2 8 119.15 466.85 427.21 <
1255 1 9 2 8 119.15 466.85 427.21 <
1256 3 -10 -2 8 338.22 1044.48 426.93 o
1256 2 -2 -10 -8 338.22 1044.48 426.93 o
1256 1 10 2 8 338.22 1044.48 426.93 o
1257 3 9 -4 8 329.98 561.81 767.50 <
1257 1 -9 4 8 329.98 561.81 767.50 <
1258 3 -9 4 8 328.29 -640.93 466.68 <
1258 1 9 -4 8 328.29 -640.93 466.68 <
1259 3 8 -4 8 815.70 1028.66 830.77 <
1259 2 -4 8 -8 815.70 1028.66 830.77 <
1259 1 -8 4 8 815.70 1028.66 830.77 <
1260 3 -8 4 8 819.49 261.12 490.73 <
1260 2 4 -8 -8 819.49 261.12 490.73 <
1260 1 8 -4 8 819.49 261.12 490.73 <
1261 3 7 -4 8 306.29 -720.06 664.52 <
1261 1 -7 4 8 306.29 -720.06 664.52 <
1262 3 -7 4 8 309.29 1020.75 545.71 <
1262 1 7 -4 8 309.29 1020.75 545.71 <
1263 3 6 -4 8 451.76 -87.04 561.83 <
1263 2 -4 6 -8 451.76 -87.04 561.83 <
1263 1 -6 4 8 451.76 -87.04 561.83 <
1264 3 -6 4 8 440.59 664.67 577.57 <
1264 2 4 -6 -8 440.59 664.67 577.57 <
1264 1 6 -4 8 440.59 664.67 577.57 <
1265 3 5 -4 8 1066.12 221.56 554.10 <
1265 1 -5 4 8 1066.12 221.56 554.10 <
1266 3 -5 4 8 1069.85 -47.48 530.34 <
1266 1 5 -4 8 1069.85 -47.48 530.34 <
1267 3 4 -4 8 7666.80 7746.59 609.01 o
1267 2 -4 4 -8 7666.80 7746.59 609.01 o
1267 1 -4 4 8 7666.80 7746.59 609.01 o
1268 3 -4 4 8 7720.81 8624.90 598.02 o
1268 2 4 -4 -8 7720.81 8624.90 598.02 o
1268 1 4 -4 8 7720.81 8624.90 598.02 o
1269 3 3 -4 8 410.51 308.60 530.17 <
1269 1 -3 4 8 410.51 308.60 530.17 <
1270 3 -3 4 8 423.02 1004.92 537.83 <
1270 1 3 -4 8 423.02 1004.92 537.83 <
1271 3 2 -4 8 1717.43 1107.79 578.00 <
1271 2 -4 2 -8 1717.43 1107.79 578.00 <
1271 1 -2 4 8 1717.43 1107.79 578.00 <
1272 3 -2 4 8 1726.20 2073.14 593.15 o
1272 2 4 -2 -8 1726.20 2073.14 593.15 o
1272 1 2 -4 8 1726.20 2073.14 593.15 o
1273 3 1 -4 8 573.25 253.21 625.16 <
1273 1 -1 4 8 573.25 253.21 625.16 <
1274 3 -1 4 8 555.75 530.16 696.33 <
1274 1 1 -4 8 555.75 530.16 696.33 <
1275 3 0 -4 8 15903.90 14132.20 792.19 o
1275 2 -4 0 -8 15903.90 14132.20 792.19 o
1275 1 0 4 8 15903.90 14132.20 792.19 o
1276 3 0 4 8 15891.00 14527.80 805.97 o
1276 2 4 0 -8 15891.00 14527.80 805.97 o
1276 1 0 -4 8 15891.00 14527.80 805.97 o
1277 3 -1 -4 8 573.25 530.16 735.90 <
1277 1 1 4 8 573.25 530.16 735.90 <
1278 3 1 4 8 555.75 371.90 799.22 <
1278 1 -1 -4 8 555.75 371.90 799.22 <
1279 3 -2 -4 8 1704.83 1345.17 775.63 <
1279 2 -4 -2 -8 1704.83 1345.17 775.63 <
1279 1 2 4 8 1704.83 1345.17 775.63 <
1280 3 2 4 8 1738.81 1503.42 728.11 o
1280 2 4 2 -8 1738.81 1503.42 728.11 o
1280 1 -2 -4 8 1738.81 1503.42 728.11 o
1281 3 -3 -4 8 410.51 1084.05 719.85 <
1281 1 3 4 8 410.51 1084.05 719.85 <
1282 3 3 4 8 423.02 783.36 625.01 <
1282 1 -3 -4 8 423.02 783.36 625.01 <
1283 3 -4 -4 8 7758.72 8173.88 734.68 o
1283 2 -4 -4 -8 7758.72 8173.88 734.68 o
1283 1 4 4 8 7758.72 8173.88 734.68 o
1284 3 4 4 8 7628.89 8213.44 734.19 o
1284 2 4 4 -8 7628.89 8213.44 734.19 o
1284 1 -4 -4 8 7628.89 8213.44 734.19 o
1285 3 -5 -4 8 1066.11 269.03 530.37 <
1285 1 5 4 8 1066.11 269.03 530.37 <
1286 3 5 4 8 1069.84 514.33 791.41 <
1286 1 -5 -4 8 1069.84 514.33 791.41 <
1287 3 -6 -4 8 441.11 577.63 561.77 <
1287 2 -4 -6 -8 441.11 577.63 561.77 <
1287 1 6 4 8 441.11 577.63 561.77 <
1288 3 6 4 8 451.24 79.13 830.86 <
1288 2 4 6 -8 451.24 79.13 830.86 <
1288 1 -6 -4 8 451.24 79.13 830.86 <
1289 3 -7 -4 8 306.29 886.23 529.95 <
1289 1 7 4 8 306.29 886.23 529.95 <
1290 3 7 4 8 309.29 348.16 822.92 <
1290 1 -7 -4 8 309.29 348.16 822.92 <
1291 3 -8 -4 8 821.74 1574.64 490.05 o
1291 2 -4 -8 -8 821.74 1574.64 490.05 o
1291 1 8 4 8 821.74 1574.64 490.05 o
1292 3 -9 -4 8 329.98 443.11 427.26 <
1292 1 9 4 8 329.98 443.11 427.26 <
1293 3 8 -6 8 68.96 332.34 522.21 <
1293 2 -6 8 -8 68.96 332.34 522.21 <
1293 1 -8 6 8 68.96 332.34 522.21 <
1294 3 -8 6 8 68.07 348.16 577.60 <
1294 2 6 -8 -8 68.07 348.16 577.60 <
1294 1 8 -6 8 68.07 348.16 577.60 <
1295 3 7 -6 8 514.17 1883.24 600.50 o
1295 1 -7 6 8 514.17 1883.24 600.50 o
1296 3 -7 6 8 513.48 545.98 593.45 <
1296 1 7 -6 8 513.48 545.98 593.45 <
1297 3 6 -6 8 986.79 451.03 546.15 <
1297 2 -6 6 -8 986.79 451.03 546.15 <
1297 1 -6 6 8 986.79 451.03 546.15 <
1298 3 -6 6 8 991.20 846.66 506.48 <
1298 2 6 -6 -8 991.20 846.66 506.48 <
1298 1 6 -6 8 991.20 846.66 506.48 <
1299 3 5 -6 8 180.09 332.34 545.96 <
1299 1 -5 6 8 180.09 332.34 545.96 <
1300 3 -5 6 8 183.48 617.20 522.14 <
1300 1 5 -6 8 183.48 617.20 522.14 <
1301 3 4 -6 8 410.75 704.23 593.38 <
1301 2 -6 4 -8 410.75 704.23 593.38 <
1301 1 -4 6 8 410.75 704.23 593.38 <
1302 3 -4 6 8 416.40 363.99 593.47 <
1302 2 6 -4 -8 416.40 363.99 593.47 <
1302 1 4 -6 8 416.40 363.99 593.47 <
1303 3 3 -6 8 702.49 79.13 609.36 <
1303 1 -3 6 8 702.49 79.13 609.36 <
1304 3 -3 6 8 695.68 1202.74 593.22 o
1304 1 3 -6 8 695.68 1202.74 593.22 o
1305 3 2 -6 8 7940.93 8340.04 615.78 o
1305 2 -6 2 -8 7940.93 8340.04 615.78 o
1305 1 -2 6 8 7940.93 8340.04 615.78 o
1306 3 -2 6 8 7963.59 8933.50 669.27 o
1306 2 6 -2 -8 7963.59 8933.50 669.27 o
1306 1 2 -6 8 7963.59 8933.50 669.27 o
1307 3 1 -6 8 128.70 166.17 585.54 <
1307 1 -1 6 8 128.70 166.17 585.54 <
1308 3 -1 6 8 131.39 807.10 601.20 <
1308 1 1 -6 8 131.39 807.10 601.20 <
1309 3 0 -6 8 1030.69 530.16 656.90 <
1309 2 -6 0 -8 1030.69 530.16 656.90 <
1309 1 0 6 8 1030.69 530.16 656.90 <
1310 3 0 6 8 1035.35 379.81 633.19 <
1310 2 6 0 -8 1035.35 379.81 633.19 <
1310 1 0 -6 8 1035.35 379.81 633.19 <
1311 3 -1 -6 8 128.70 -118.69 672.58 <
1311 1 1 6 8 128.70 -118.69 672.58 <
1312 3 1 6 8 131.38 466.85 656.71 <
1312 1 -1 -6 8 131.38 466.85 656.71 <
1313 3 -2 -6 8 7979.52 8909.76 772.69 o
1313 2 -6 -2 -8 7979.52 8909.76 772.69 o
1313 1 2 6 8 7979.52 8909.76 772.69 o
1314 3 2 6 8 7925.02 10183.70 712.13 o
1314 2 6 2 -8 7925.02 10183.70 712.13 o
1314 1 -2 -6 8 7925.02 10183.70 712.13 o
1315 3 -3 -6 8 702.49 387.73 712.21 <
1315 1 3 6 8 702.49 387.73 712.21 <
1316 3 3 6 8 695.68 997.01 617.08 <
1316 1 -3 -6 8 695.68 997.01 617.08 <
1317 3 -4 -6 8 412.01 1155.26 688.15 <
1317 2 -6 -4 -8 412.01 1155.26 688.15 <
1317 1 4 6 8 412.01 1155.26 688.15 <
1318 3 4 6 8 415.14 941.62 609.11 <
1318 2 6 4 -8 415.14 941.62 609.11 <
1318 1 -4 -6 8 415.14 941.62 609.11 <
1319 3 -5 -6 8 180.09 419.38 704.20 <
1319 1 5 6 8 180.09 419.38 704.20 <
1320 3 5 6 8 183.48 126.60 648.85 <
1320 1 -5 -6 8 183.48 126.60 648.85 <
1321 3 -6 -6 8 994.30 1163.17 648.77 <
1321 2 -6 -6 -8 994.30 1163.17 648.77 <
1321 1 6 6 8 994.30 1163.17 648.77 <
1322 3 6 6 8 983.70 941.62 775.46 <
1322 2 6 6 -8 983.70 941.62 775.46 <
1322 1 -6 -6 8 983.70 941.62 775.46 <
1323 3 -7 -6 8 514.17 815.01 545.88 <
1323 1 7 6 8 514.17 815.01 545.88 <
1324 3 7 6 8 513.48 1147.35 735.67 <
1324 1 -7 -6 8 513.48 1147.35 735.67 <
1325 3 -8 -6 8 67.55 1084.05 553.53 <
1325 2 -6 -8 -8 67.55 1084.05 553.53 <
1325 1 8 6 8 67.55 1084.05 553.53 <
1326 3 8 6 8 69.48 253.21 854.57 <
1326 2 6 8 -8 69.48 253.21 854.57 <
1326 1 -8 -6 8 69.48 253.21 854.57 <
1327 3 7 -8 8 81.11 862.49 656.57 <
1327 1 -7 8 8 81.11 862.49 656.57 <
1328 3 -7 8 8 81.91 1171.09 632.65 <
1328 1 7 -8 8 81.91 1171.09 632.65 <
1329 3 6 -8 8 63.67 759.63 601.21 <
1329 2 -8 6 -8 63.67 759.63 601.21 <
1329 1 -6 8 8 63.67 759.63 601.21 <
1330 3 -6 8 8 62.99 482.68 569.65 <
1330 2 8 -6 -8 62.99 482.68 569.65 <
1330 1 6 -8 8 62.99 482.68 569.65 <
1331 3 5 -8 8 319.32 490.59 569.68 <
1331 1 -5 8 8 319.32 490.59 569.68 <
1332 3 -5 8 8 318.80 680.50 585.45 <
1332 1 5 -8 8 318.80 680.50 585.45 <
1333 3 4 -8 8 959.46 371.90 569.87 <
1333 2 -8 4 -8 959.46 371.90 569.87 <
1333 1 -4 8 8 959.46 371.90 569.87 <
1334 3 -4 8 8 962.44 759.63 561.89 <
1334 2 8 -4 -8 962.44 759.63 561.89 <
1334 1 4 -8 8 962.44 759.63 561.89 <
1335 3 3 -8 8 2.39 -126.60 601.36 <
1335 1 -3 8 8 2.39 -126.60 601.36 <
1336 3 -3 8 8 2.48 458.94 609.22 <
1336 1 3 -8 8 2.48 458.94 609.22 <
1337 3 2 -8 8 338.28 617.20 585.48 <
1337 2 -8 2 -8 338.28 617.20 585.48 <
1337 1 -2 8 8 338.28 617.20 585.48 <
1338 3 -2 8 8 343.11 379.81 561.80 <
1338 2 8 -2 -8 343.11 379.81 561.80 <
1338 1 2 -8 8 343.11 379.81 561.80 <
1339 3 1 -8 8 139.22 1139.44 656.43 <
1339 1 -1 8 8 139.22 1139.44 656.43 <
1340 3 -1 8 8 138.86 1701.24 616.40 o
1340 1 1 -8 8 138.86 1701.24 616.40 o
1341 3 0 -8 8 3748.60 3544.91 617.51 o
1341 2 -8 0 -8 3748.60 3544.91 617.51 o
1341 1 0 8 8 3748.60 3544.91 617.51 o
1342 3 0 8 8 3744.38 4716.00 631.22 o
1342 2 8 0 -8 3744.38 4716.00 631.22 o
1342 1 0 -8 8 3744.38 4716.00 631.22 o
1343 3 -1 -8 8 139.22 379.81 585.51 <
1343 1 1 8 8 139.22 379.81 585.51 <
1344 3 1 8 8 138.86 340.25 617.17 <
1344 1 -1 -8 8 138.86 340.25 617.17 <
1345 3 -2 -8 8 340.46 530.16 680.46 <
1345 2 -8 -2 -8 340.46 530.16 680.46 <
1345 1 2 8 8 340.46 530.16 680.46 <
1346 3 2 8 8 340.93 -63.30 625.12 <
1346 2 8 2 -8 340.93 -63.30 625.12 <
1346 1 -2 -8 8 340.93 -63.30 625.12 <
1347 3 -3 -8 8 2.39 933.71 656.52 <
1347 1 3 8 8 2.39 933.71 656.52 <
1348 3 3 8 8 2.48 -39.56 648.84 <
1348 1 -3 -8 8 2.48 -39.56 648.84 <
1349 3 -4 -8 8 964.93 1440.12 680.26 o
1349 2 -8 -4 -8 964.93 1440.12 680.26 o
1349 1 4 8 8 964.93 1440.12 680.26 o
1350 3 4 8 8 956.97 1155.26 672.50 <
1350 2 8 4 -8 956.97 1155.26 672.50 <
1350 1 -4 -8 8 956.97 1155.26 672.50 <
1351 3 -5 -8 8 319.32 221.56 712.16 <
1351 1 5 8 8 319.32 221.56 712.16 <
1352 3 5 8 8 318.80 878.32 632.86 <
1352 1 -5 -8 8 318.80 878.32 632.86 <
1353 3 -6 -8 8 62.41 609.28 704.15 <
1353 2 -8 -6 -8 62.41 609.28 704.15 <
1353 1 6 8 8 62.41 609.28 704.15 <
1354 3 6 8 8 64.25 1099.87 680.19 <
1354 2 8 6 -8 64.25 1099.87 680.19 <
1354 1 -6 -8 8 64.25 1099.87 680.19 <
1355 3 -7 -8 8 81.11 1566.73 790.74 <
1355 1 7 8 8 81.11 1566.73 790.74 <
1356 3 7 8 8 81.91 886.23 981.05 <
1356 1 -7 -8 8 81.91 886.23 981.05 <
1357 3 3 -10 8 69.49 506.42 640.87 <
1357 1 -3 10 8 69.49 506.42 640.87 <
1358 3 -3 10 8 69.71 371.90 601.33 <
1358 1 3 -10 8 69.71 371.90 601.33 <
1359 3 2 -10 8 431.36 1313.52 695.98 <
1359 2 -10 2 -8 431.36 1313.52 695.98 <
1359 1 -2 10 8 431.36 1313.52 695.98 <
1360 3 -2 10 8 432.15 561.81 617.17 <
1360 2 10 -2 -8 432.15 561.81 617.17 <
1360 1 2 -10 8 432.15 561.81 617.17 <
1361 3 1 -10 8 12.69 181.99 617.19 <
1361 1 -1 10 8 12.69 181.99 617.19 <
1362 3 -1 10 8 12.59 142.43 625.10 <
1362 1 1 -10 8 12.59 142.43 625.10 <
1363 3 0 -10 8 88.17 1258.13 672.18 <
1363 2 -10 0 -8 88.17 1258.13 672.18 <
1363 1 0 10 8 88.17 1258.13 672.18 <
1364 3 0 10 8 88.73 862.49 593.25 <
1364 2 10 0 -8 88.73 862.49 593.25 <
1364 1 0 -10 8 88.73 862.49 593.25 <
1365 3 -1 -10 8 12.69 530.16 617.11 <
1365 1 1 10 8 12.69 530.16 617.11 <
1366 3 1 10 8 12.59 712.15 672.45 <
1366 1 -1 -10 8 12.59 712.15 672.45 <
1367 3 -2 -10 8 432.87 846.66 704.12 <
1367 2 -10 -2 -8 432.87 846.66 704.12 <
1367 1 2 10 8 432.87 846.66 704.12 <
1368 3 2 10 8 430.64 1432.21 680.07 o
1368 2 10 2 -8 430.64 1432.21 680.07 o
1368 1 -2 -10 8 430.64 1432.21 680.07 o
1369 3 -3 -10 8 69.49 917.88 751.52 <
1369 1 3 10 8 69.49 917.88 751.52 <
1370 3 3 10 8 69.71 822.93 711.99 <
1370 1 -3 -10 8 69.71 822.93 711.99 <
1371 3 -10 1 9 28.56 134.52 411.46 <
1371 1 10 -1 9 28.56 134.52 411.46 <
1372 3 -9 1 9 1326.11 1218.56 419.46 o
1372 2 1 -9 -9 1326.11 1218.56 419.46 o
1372 1 9 -1 9 1326.11 1218.56 419.46 o
1373 3 8 -1 9 352.84 -213.64 767.53 <
1373 1 -8 1 9 352.84 -213.64 767.53 <
1374 3 -8 1 9 348.88 -7.91 435.23 <
1374 1 8 -1 9 348.88 -7.91 435.23 <
1375 3 7 -1 9 7655.92 10254.90 814.98 o
1375 2 -1 7 -9 7655.92 10254.90 814.98 o
1375 1 -7 1 9 7655.92 10254.90 814.98 o
1376 3 -7 1 9 7651.88 9788.08 520.31 o
1376 2 1 -7 -9 7651.88 9788.08 520.31 o
1376 1 7 -1 9 7651.88 9788.08 520.31 o
1377 3 6 -1 9 1663.00 2112.71 751.40 o
1377 1 -6 1 9 1663.00 2112.71 751.40 o
1378 3 -6 1 9 1661.10 1384.73 451.27 o
1378 1 6 -1 9 1661.10 1384.73 451.27 o
1379 3 5 -1 9 17216.50 20446.60 875.28 o
1379 2 -1 5 -9 17216.50 20446.60 875.28 o
1379 1 -5 1 9 17216.50 20446.60 875.28 o
1380 3 -5 1 9 17135.70 18879.80 513.85 o
1380 2 1 -5 -9 17135.70 18879.80 513.85 o
1380 1 5 -1 9 17135.70 18879.80 513.85 o
1381 3 4 -1 9 5428.98 5507.28 806.96 o
1381 1 -4 1 9 5428.98 5507.28 806.96 o
1382 3 -4 1 9 5440.34 5863.35 481.34 o
1382 1 4 -1 9 5440.34 5863.35 481.34 o
1383 3 3 -1 9 29082.70 26246.60 1095.08 o
1383 2 -1 3 -9 29082.70 26246.60 1095.08 o
1383 1 -3 1 9 29082.70 26246.60 1095.08 o
1384 3 -3 1 9 28803.50 26222.90 684.55 o
1384 2 1 -3 -9 28803.50 26222.90 684.55 o
1384 1 3 -1 9 28803.50 26222.90 684.55 o
1385 3 2 -1 9 4861.74 5531.02 1162.36 o
1385 1 -2 1 9 4861.74 5531.02 1162.36 o
1386 3 -2 1 9 4896.64 5713.01 591.46 o
1386 1 2 -1 9 4896.64 5713.01 591.46 o
1387 3 1 -1 9 7696.91 4652.70 954.36 o
1387 2 -1 1 -9 7696.91 4652.70 954.36 o
1387 1 -1 1 9 7696.91 4652.70 954.36 o
1388 3 -1 1 9 7680.02 4257.06 883.91 o
1388 2 1 -1 -9 7680.02 4257.06 883.91 o
1388 1 1 -1 9 7680.02 4257.06 883.91 o
1389 3 -1 -1 9 7668.06 4138.37 1199.01 o
1389 2 -1 -1 -9 7668.06 4138.37 1199.01 o
1389 1 1 1 9 7668.06 4138.37 1199.01 o
1390 3 1 1 9 7708.73 4272.89 1104.38 o
1390 2 1 1 -9 7708.73 4272.89 1104.38 o
1390 1 -1 -1 9 7708.73 4272.89 1104.38 o
1391 3 -2 -1 9 4861.78 5151.20 957.04 o
1391 1 2 1 9 4861.78 5151.20 957.04 o
1392 3 2 1 9 4896.66 5744.66 861.06 o
1392 1 -2 -1 9 4896.66 5744.66 861.06 o
1393 3 -3 -1 9 28851.70 27520.60 912.99 o
1393 2 -1 -3 -9 28851.70 27520.60 912.99 o
1393 1 3 1 9 28851.70 27520.60 912.99 o
1394 3 3 1 9 29034.50 26238.70 870.26 o
1394 2 1 3 -9 29034.50 26238.70 870.26 o
1394 1 -3 -1 9 29034.50 26238.70 870.26 o
1395 3 -4 -1 9 5428.97 4628.96 737.30 o
1395 1 4 1 9 5428.97 4628.96 737.30 o
1396 3 4 1 9 5440.33 5451.89 632.99 o
1396 1 -4 -1 9 5440.33 5451.89 632.99 o
1397 3 -5 -1 9 17136.90 19750.20 529.61 o
1397 2 -1 -5 -9 17136.90 19750.20 529.61 o
1397 1 5 1 9 17136.90 19750.20 529.61 o
1398 3 5 1 9 17215.30 20913.40 888.38 o
1398 2 1 5 -9 17215.30 20913.40 888.38 o
1398 1 -5 -1 9 17215.30 20913.40 888.38 o
1399 3 -6 -1 9 1663.01 1416.38 403.80 o
1399 1 6 1 9 1663.01 1416.38 403.80 o
1400 3 -7 -1 9 7648.92 9242.10 418.54 o
1400 2 -1 -7 -9 7648.92 9242.10 418.54 o
1400 1 7 1 9 7648.92 9242.10 418.54 o
1401 3 -8 -1 9 352.84 253.21 395.66 <
1401 1 8 1 9 352.84 253.21 395.66 <
1402 3 -9 -1 9 1324.03 1812.02 395.10 o
1402 2 -1 -9 -9 1324.03 1812.02 395.10 o
1402 1 9 1 9 1324.03 1812.02 395.10 o
1403 3 -10 -1 9 28.10 815.01 419.10 <
1403 1 10 1 9 28.10 815.01 419.10 <
1404 3 10 -3 9 65.28 751.71 846.55 <
1404 1 -10 3 9 65.28 751.71 846.55 <
1405 3 -10 3 9 64.33 1527.16 489.76 o
1405 1 10 -3 9 64.33 1527.16 489.76 o
1406 3 9 -3 9 1362.46 1661.68 846.52 <
1406 2 -3 9 -9 1362.46 1661.68 846.52 <
1406 1 -9 3 9 1362.46 1661.68 846.52 <
1407 3 -9 3 9 1363.54 1756.63 482.33 o
1407 2 3 -9 -9 1363.54 1756.63 482.33 o
1407 1 9 -3 9 1363.54 1756.63 482.33 o
1408 3 8 -3 9 187.24 1329.34 703.83 <
1408 1 -8 3 9 187.24 1329.34 703.83 <
1409 3 -8 3 9 189.01 371.90 466.82 <
1409 1 8 -3 9 189.01 371.90 466.82 <
1410 3 7 -3 9 2429.66 2801.12 767.19 o
1410 2 -3 7 -9 2429.66 2801.12 767.19 o
1410 1 -7 3 9 2429.66 2801.12 767.19 o
1411 3 -7 3 9 2435.42 2658.69 474.44 o
1411 2 3 -7 -9 2435.42 2658.69 474.44 o
1411 1 7 -3 9 2435.42 2658.69 474.44 o
1412 3 6 -3 9 1154.55 1076.13 743.83 <
1412 1 -6 3 9 1154.55 1076.13 743.83 <
1413 3 -6 3 9 1144.54 379.81 459.22 <
1413 1 6 -3 9 1144.54 379.81 459.22 <
1414 3 5 -3 9 14477.40 14591.10 790.72 o
1414 2 -3 5 -9 14477.40 14591.10 790.72 o
1414 1 -5 3 9 14477.40 14591.10 790.72 o
1415 3 -5 3 9 14474.60 14330.00 594.39 o
1415 2 3 -5 -9 14474.60 14330.00 594.39 o
1415 1 5 -3 9 14474.60 14330.00 594.39 o
1416 3 4 -3 9 1205.31 1408.47 537.93 o
1416 1 -4 3 9 1205.31 1408.47 537.93 o
1417 3 -4 3 9 1205.71 1052.40 538.15 <
1417 1 4 -3 9 1205.71 1052.40 538.15 <
1418 3 3 -3 9 19469.40 16743.40 660.65 o
1418 2 -3 3 -9 19469.40 16743.40 660.65 o
1418 1 -3 3 9 19469.40 16743.40 660.65 o
1419 3 -3 3 9 19447.90 17170.70 649.99 o
1419 2 3 -3 -9 19447.90 17170.70 649.99 o
1419 1 3 -3 9 19447.90 17170.70 649.99 o
1420 3 2 -3 9 2163.31 2065.23 704.31 o
1420 1 -2 3 9 2163.31 2065.23 704.31 o
1421 3 -2 3 9 2177.27 1384.73 641.48 o
1421 1 2 -3 9 2177.27 1384.73 641.48 o
1422 3 1 -3 9 31587.30 27536.40 867.59 o
1422 2 -3 1 -9 31587.30 27536.40 867.59 o
1422 1 -1 3 9 31587.30 27536.40 867.59 o
1423 3 -1 3 9 31799.30 27552.20 839.24 o
1423 2 3 -1 -9 31799.30 27552.20 839.24 o
1423 1 1 -3 9 31799.30 27552.20 839.24 o
1424 3 -1 -3 9 31704.10 26808.40 1248.66 o
1424 2 -3 -1 -9 31704.10 26808.40 1248.66 o
1424 1 1 3 9 31704.10 26808.40 1248.66 o
1425 3 1 3 9 31682.50 28644.20 1261.50 o
1425 2 3 1 -9 31682.50 28644.20 1261.50 o
1425 1 -1 -3 9 31682.50 28644.20 1261.50 o
1426 3 -2 -3 9 2163.29 2136.44 1020.76 o
1426 1 2 3 9 2163.29 2136.44 1020.76 o
1427 3 2 3 9 2177.25 1804.11 894.36 o
1427 1 -2 -3 9 2177.25 1804.11 894.36 o
1428 3 -3 -3 9 19432.80 16790.90 760.35 o
1428 2 -3 -3 -9 19432.80 16790.90 760.35 o
1428 1 3 3 9 19432.80 16790.90 760.35 o
1429 3 3 3 9 19484.50 17574.20 920.10 o
1429 2 3 3 -9 19484.50 17574.20 920.10 o
1429 1 -3 -3 9 19484.50 17574.20 920.10 o
1430 3 -4 -3 9 1205.31 941.62 538.20 <
1430 1 4 3 9 1205.31 941.62 538.20 <
1431 3 4 3 9 1205.71 2057.32 774.93 o
1431 1 -4 -3 9 1205.71 2057.32 774.93 o
1432 3 -5 -3 9 14483.70 14891.80 582.79 o
1432 2 -3 -5 -9 14483.70 14891.80 582.79 o
1432 1 5 3 9 14483.70 14891.80 582.79 o
1433 3 5 3 9 14468.30 16759.20 835.04 o
1433 2 3 5 -9 14468.30 16759.20 835.04 o
1433 1 -5 -3 9 14468.30 16759.20 835.04 o
1434 3 -6 -3 9 1154.56 1337.26 506.29 o
1434 1 6 3 9 1154.56 1337.26 506.29 o
1435 3 6 3 9 1144.53 1329.34 799.11 <
1435 1 -6 -3 9 1144.53 1329.34 799.11 <
1436 3 -7 -3 9 2424.04 3355.01 481.11 o
1436 2 -3 -7 -9 2424.04 3355.01 481.11 o
1436 1 7 3 9 2424.04 3355.01 481.11 o
1437 3 7 3 9 2441.03 3062.24 822.35 o
1437 2 3 7 -9 2441.03 3062.24 822.35 o
1437 1 -7 -3 9 2441.03 3062.24 822.35 o
1438 3 -8 -3 9 187.23 870.40 434.93 <
1438 1 8 3 9 187.23 870.40 434.93 <
1439 3 -9 -3 9 1363.28 1756.63 426.89 o
1439 2 -3 -9 -9 1363.28 1756.63 426.89 o
1439 1 9 3 9 1363.28 1756.63 426.89 o
1440 3 -10 -3 9 65.28 783.36 427.05 <
1440 1 10 3 9 65.28 783.36 427.05 <
1441 3 9 -5 9 153.54 577.63 822.87 <
1441 2 -5 9 -9 153.54 577.63 822.87 <
1441 1 -9 5 9 153.54 577.63 822.87 <
1442 3 -9 5 9 152.93 1273.95 490.04 o
1442 2 5 -9 -9 152.93 1273.95 490.04 o
1442 1 9 -5 9 152.93 1273.95 490.04 o
1443 3 8 -5 9 271.96 989.09 783.18 <
1443 1 -8 5 9 271.96 989.09 783.18 <
1444 3 -8 5 9 268.59 94.95 545.99 <
1444 1 8 -5 9 268.59 94.95 545.99 <
1445 3 7 -5 9 2740.92 3085.97 585.08 o
1445 2 -5 7 -9 2740.92 3085.97 585.08 o
1445 1 -7 5 9 2740.92 3085.97 585.08 o
1446 3 -7 5 9 2740.79 2263.05 617.70 o
1446 2 5 -7 -9 2740.79 2263.05 617.70 o
1446 1 7 -5 9 2740.79 2263.05 617.70 o
1447 3 6 -5 9 332.19 1115.70 537.73 o
1447 1 -6 5 9 332.19 1115.70 537.73 o
1448 3 -6 5 9 333.20 838.75 545.82 <
1448 1 6 -5 9 333.20 838.75 545.82 <
1449 3 5 -5 9 2509.24 2903.98 624.64 o
1449 2 -5 5 -9 2509.24 2903.98 624.64 o
1449 1 -5 5 9 2509.24 2903.98 624.64 o
1450 3 -5 5 9 2501.03 2350.09 601.53 o
1450 2 5 -5 -9 2501.03 2350.09 601.53 o
1450 1 5 -5 9 2501.03 2350.09 601.53 o
1451 3 4 -5 9 681.59 245.29 593.53 <
1451 1 -4 5 9 681.59 245.29 593.53 <
1452 3 -4 5 9 678.85 1297.69 553.57 o
1452 1 4 -5 9 678.85 1297.69 553.57 o
1453 3 3 -5 9 16254.00 14654.40 635.39 o
1453 2 -5 3 -9 16254.00 14654.40 635.39 o
1453 1 -3 5 9 16254.00 14654.40 635.39 o
1454 3 -3 5 9 16273.40 15793.90 612.62 o
1454 2 5 -3 -9 16273.40 15793.90 612.62 o
1454 1 3 -5 9 16273.40 15793.90 612.62 o
1455 3 2 -5 9 264.83 -63.30 625.11 <
1455 1 -2 5 9 264.83 -63.30 625.11 <
1456 3 -2 5 9 271.76 221.56 593.46 <
1456 1 2 -5 9 271.76 221.56 593.46 <
1457 3 1 -5 9 21309.60 20573.20 733.57 o
1457 2 -5 1 -9 21309.60 20573.20 733.57 o
1457 1 -1 5 9 21309.60 20573.20 733.57 o
1458 3 -1 5 9 21345.20 19441.60 656.64 o
1458 2 5 -1 -9 21345.20 19441.60 656.64 o
1458 1 1 -5 9 21345.20 19441.60 656.64 o
1459 3 -1 -5 9 21312.50 20343.70 813.69 o
1459 2 -5 -1 -9 21312.50 20343.70 813.69 o
1459 1 1 5 9 21312.50 20343.70 813.69 o
1460 3 1 5 9 21342.30 20810.50 763.53 o
1460 2 5 1 -9 21342.30 20810.50 763.53 o
1460 1 -1 -5 9 21342.30 20810.50 763.53 o
1461 3 -2 -5 9 264.83 300.68 712.14 <
1461 1 2 5 9 264.83 300.68 712.14 <
1462 3 2 5 9 271.75 -150.34 672.58 <
1462 1 -2 -5 9 271.75 -150.34 672.58 <
1463 3 -3 -5 9 16276.00 15857.20 809.31 o
1463 2 -5 -3 -9 16276.00 15857.20 809.31 o
1463 1 3 5 9 16276.00 15857.20 809.31 o
1464 3 3 5 9 16251.30 15667.30 754.99 o
1464 2 5 3 -9 16251.30 15667.30 754.99 o
1464 1 -3 -5 9 16251.30 15667.30 754.99 o
1465 3 -4 -5 9 681.59 1131.52 727.81 <
1465 1 4 5 9 681.59 1131.52 727.81 <
1466 3 4 5 9 678.85 -443.11 632.99 <
1466 1 -4 -5 9 678.85 -443.11 632.99 <
1467 3 -5 -5 9 2495.27 2809.03 688.08 o
1467 2 -5 -5 -9 2495.27 2809.03 688.08 o
1467 1 5 5 9 2495.27 2809.03 688.08 o
1468 3 5 5 9 2514.99 3426.22 829.93 o
1468 2 5 5 -9 2514.99 3426.22 829.93 o
1468 1 -5 -5 9 2514.99 3426.22 829.93 o
1469 3 -6 -5 9 332.19 -569.72 545.86 <
1469 1 6 5 9 332.19 -569.72 545.86 <
1470 3 6 5 9 333.20 118.69 775.46 <
1470 1 -6 -5 9 333.20 118.69 775.46 <
1471 3 -7 -5 9 2738.54 2642.86 554.02 o
1471 2 -5 -7 -9 2738.54 2642.86 554.02 o
1471 1 7 5 9 2738.54 2642.86 554.02 o
1472 3 7 5 9 2743.18 2721.99 767.56 o
1472 2 5 7 -9 2743.18 2721.99 767.56 o
1472 1 -7 -5 9 2743.18 2721.99 767.56 o
1473 3 -8 -5 9 271.96 791.28 545.82 <
1473 1 8 5 9 271.96 791.28 545.82 <
1474 3 8 5 9 268.59 640.93 878.26 <
1474 1 -8 -5 9 268.59 640.93 878.26 <
1475 3 -9 -5 9 151.91 933.71 561.56 <
1475 2 -5 -9 -9 151.91 933.71 561.56 <
1475 1 9 5 9 151.91 933.71 561.56 <
1476 3 7 -7 9 172.34 1068.22 648.56 <
1476 2 -7 7 -9 172.34 1068.22 648.56 <
1476 1 -7 7 9 172.34 1068.22 648.56 <
1477 3 -7 7 9 170.45 -47.48 617.20 <
1477 2 7 -7 -9 170.45 -47.48 617.20 <
1477 1 7 -7 9 170.45 -47.48 617.20 <
1478 3 6 -7 9 248.33 609.28 593.38 <
1478 1 -6 7 9 248.33 609.28 593.38 <
1479 3 -6 7 9 246.30 87.04 577.64 <
1479 1 6 -7 9 246.30 87.04 577.64 <
1480 3 5 -7 9 3036.11 2278.87 562.72 o
1480 2 -7 5 -9 3036.11 2278.87 562.72 o
1480 1 -5 7 9 3036.11 2278.87 562.72 o
1481 3 -5 7 9 3031.63 3529.09 561.01 o
1481 2 7 -5 -9 3031.63 3529.09 561.01 o
1481 1 5 -7 9 3031.63 3529.09 561.01 o
1482 3 4 -7 9 158.18 443.11 585.50 <
1482 1 -4 7 9 158.18 443.11 585.50 <
1483 3 -4 7 9 159.97 965.36 561.54 <
1483 1 4 -7 9 159.97 965.36 561.54 <
1484 3 3 -7 9 3243.13 3726.91 560.99 o
1484 2 -7 3 -9 3243.13 3726.91 560.99 o
1484 1 -3 7 9 3243.13 3726.91 560.99 o
1485 3 -3 7 9 3217.93 4027.59 568.29 o
1485 2 7 -3 -9 3217.93 4027.59 568.29 o
1485 1 3 -7 9 3217.93 4027.59 568.29 o
1486 3 2 -7 9 145.16 522.24 561.73 <
1486 1 -2 7 9 145.16 522.24 561.73 <
1487 3 -2 7 9 143.21 221.56 561.80 <
1487 1 2 -7 9 143.21 221.56 561.80 <
1488 3 1 -7 9 10183.00 9795.99 682.00 o
1488 2 -7 1 -9 10183.00 9795.99 682.00 o
1488 1 -1 7 9 10183.00 9795.99 682.00 o
1489 3 -1 7 9 10178.70 10864.20 621.99 o
1489 2 7 -1 -9 10178.70 10864.20 621.99 o
1489 1 1 -7 9 10178.70 10864.20 621.99 o
1490 3 -1 -7 9 10175.80 10824.60 701.62 o
1490 2 -7 -1 -9 10175.80 10824.60 701.62 o
1490 1 1 7 9 10175.80 10824.60 701.62 o
1491 3 1 7 9 10185.90 11157.00 660.44 o
1491 2 7 1 -9 10185.90 11157.00 660.44 o
1491 1 -1 -7 9 10185.90 11157.00 660.44 o
1492 3 -2 -7 9 145.16 -118.69 688.41 <
1492 1 2 7 9 145.16 -118.69 688.41 <
1493 3 2 7 9 143.21 791.28 640.78 <
1493 1 -2 -7 9 143.21 791.28 640.78 <
1494 3 -3 -7 9 3215.61 3275.88 680.42 o
1494 2 -7 -3 -9 3215.61 3275.88 680.42 o
1494 1 3 7 9 3215.61 3275.88 680.42 o
1495 3 3 7 9 3245.45 3679.43 656.14 o
1495 2 7 3 -9 3245.45 3679.43 656.14 o
1495 1 -3 -7 9 3245.45 3679.43 656.14 o
1496 3 -4 -7 9 158.18 1012.83 743.58 <
1496 1 4 7 9 158.18 1012.83 743.58 <
1497 3 4 7 9 159.97 799.19 648.69 <
1497 1 -4 -7 9 159.97 799.19 648.69 <
1498 3 -5 -7 9 3030.65 2065.23 697.20 o
1498 2 -7 -5 -9 3030.65 2065.23 697.20 o
1498 1 5 7 9 3030.65 2065.23 697.20 o
1499 3 5 7 9 3037.09 2785.29 688.69 o
1499 2 7 5 -9 3037.09 2785.29 688.69 o
1499 1 -5 -7 9 3037.09 2785.29 688.69 o
1500 3 -6 -7 9 248.33 577.63 648.78 <
1500 1 6 7 9 248.33 577.63 648.78 <
1501 3 6 7 9 246.30 -625.11 878.23 <
1501 1 -6 -7 9 246.30 -625.11 878.23 <
1502 3 -7 -7 9 169.13 1155.26 608.92 <
1502 2 -7 -7 -9 169.13 1155.26 608.92 <
1502 1 7 7 9 169.13 1155.26 608.92 <
1503 3 7 7 9 173.66 696.32 846.58 <
1503 2 7 7 -9 173.66 696.32 846.58 <
1503 1 -7 -7 9 173.66 696.32 846.58 <
1504 3 5 -9 9 205.62 712.15 632.90 <
1504 2 -9 5 -9 205.62 712.15 632.90 <
1504 1 -5 9 9 205.62 712.15 632.90 <
1505 3 -5 9 9 203.82 664.67 577.52 <
1505 2 9 -5 -9 203.82 664.67 577.52 <
1505 1 5 -9 9 203.82 664.67 577.52 <
1506 3 4 -9 9 77.99 1076.13 616.87 <
1506 1 -4 9 9 77.99 1076.13 616.87 <
1507 3 -4 9 9 77.33 292.77 593.43 <
1507 1 4 -9 9 77.33 292.77 593.43 <
1508 3 3 -9 9 1783.02 1645.85 625.21 o
1508 2 -9 3 -9 1783.02 1645.85 625.21 o
1508 1 -3 9 9 1783.02 1645.85 625.21 o
1509 3 -3 9 9 1782.04 2263.05 593.00 o
1509 2 9 -3 -9 1782.04 2263.05 593.00 o
1509 1 3 -9 9 1782.04 2263.05 593.00 o
1510 3 2 -9 9 21.50 292.77 696.30 <
1510 1 -2 9 9 21.50 292.77 696.30 <
1511 3 -2 9 9 21.93 348.16 632.99 <
1511 1 2 -9 9 21.93 348.16 632.99 <
1512 3 1 -9 9 1904.59 1946.54 696.29 o
1512 2 -9 1 -9 1904.59 1946.54 696.29 o
1512 1 -1 9 9 1904.59 1946.54 696.29 o
1513 3 -1 9 9 1899.79 1796.20 633.10 o
1513 2 9 -1 -9 1899.79 1796.20 633.10 o
1513 1 1 -9 9 1899.79 1796.20 633.10 o
1514 3 -1 -9 9 1899.55 2627.03 663.97 o
1514 2 -9 -1 -9 1899.55 2627.03 663.97 o
1514 1 1 9 9 1899.55 2627.03 663.97 o
1515 3 1 9 9 1904.83 1337.26 617.57 o
1515 2 9 1 -9 1904.83 1337.26 617.57 o
1515 1 -1 -9 9 1904.83 1337.26 617.57 o
1516 3 -2 -9 9 21.50 -110.78 680.49 <
1516 1 2 9 9 21.50 -110.78 680.49 <
1517 3 2 9 9 21.93 601.37 625.01 <
1517 1 -2 -9 9 21.93 601.37 625.01 <
1518 3 -3 -9 9 1782.39 1582.55 720.18 o
1518 2 -9 -3 -9 1782.39 1582.55 720.18 o
1518 1 3 9 9 1782.39 1582.55 720.18 o
1519 3 3 9 9 1782.68 2563.73 679.79 o
1519 2 9 3 -9 1782.68 2563.73 679.79 o
1519 1 -3 -9 9 1782.68 2563.73 679.79 o
1520 3 -4 -9 9 77.99 482.68 727.92 <
1520 1 4 9 9 77.99 482.68 727.92 <
1521 3 4 9 9 77.33 71.21 696.32 <
1521 1 -4 -9 9 77.33 71.21 696.32 <
1522 3 -5 -9 9 203.15 1091.96 759.38 <
1522 2 -9 -5 -9 203.15 1091.96 759.38 <
1522 1 5 9 9 203.15 1091.96 759.38 <
1523 3 5 9 9 206.29 1139.44 727.69 <
1523 2 9 5 -9 206.29 1139.44 727.69 <
1523 1 -5 -9 9 206.29 1139.44 727.69 <
1524 3 -1 0 10 47725.50 57565.30 1077.82 o
1524 1 1 0 10 47725.50 57565.30 1077.82 o
1525 3 1 0 10 47725.40 59258.60 1105.52 o
1525 1 -1 0 10 47725.40 59258.60 1105.52 o
1526 3 -2 0 10 3567.91 7683.28 814.47 o
1526 2 0 -2 -10 3567.91 7683.28 814.47 o
1526 1 2 0 10 3567.91 7683.28 814.47 o
1527 3 2 0 10 3857.38 7153.13 696.64 o
1527 2 0 2 -10 3857.38 7153.13 696.64 o
1527 1 -2 0 10 3857.38 7153.13 696.64 o
1528 3 -3 0 10 917.05 205.73 712.27 <
1528 1 3 0 10 917.05 205.73 712.27 <
1529 3 3 0 10 917.05 1028.66 688.37 <
1529 1 -3 0 10 917.05 1028.66 688.37 <
1530 3 -4 0 10 317834.00 303541.00 2125.14 o
1530 2 0 -4 -10 317834.00 303541.00 2125.14 o
1530 1 4 0 10 317834.00 303541.00 2125.14 o
1531 3 4 0 10 316780.00 319960.00 1247.37 o
1531 2 0 4 -10 316780.00 319960.00 1247.37 o
1531 1 -4 0 10 316780.00 319960.00 1247.37 o
1532 3 -5 0 10 29419.60 25091.30 599.45 o
1532 1 5 0 10 29419.60 25091.30 599.45 o
1533 3 5 0 10 29419.60 23983.60 950.17 o
1533 1 -5 0 10 29419.60 23983.60 950.17 o
1534 3 -6 0 10 4762.43 3244.23 454.38 o
1534 2 0 -6 -10 4762.43 3244.23 454.38 o
1534 1 6 0 10 4762.43 3244.23 454.38 o
1535 3 6 0 10 4848.55 1962.36 888.77 o
1535 2 0 6 -10 4848.55 1962.36 888.77 o
1535 1 -6 0 10 4848.55 1962.36 888.77 o
1536 3 -7 0 10 0.03 379.81 466.80 <
1536 1 7 0 10 0.03 379.81 466.80 <
1537 3 -8 0 10 22530.30 23390.10 471.58 o
1537 2 0 -8 -10 22530.30 23390.10 471.58 o
1537 1 8 0 10 22530.30 23390.10 471.58 o
1538 3 -9 0 10 561.50 0.00 419.44 <
1538 1 9 0 10 561.50 0.00 419.44 <
1539 3 -10 0 10 381.77 1155.26 418.93 o
1539 2 0 -10 -10 381.77 1155.26 418.93 o
1539 1 10 0 10 381.77 1155.26 418.93 o
1540 3 -10 2 10 3541.33 4241.24 512.87 o
1540 2 2 -10 -10 3541.33 4241.24 512.87 o
1540 1 10 -2 10 3541.33 4241.24 512.87 o
1541 3 9 -2 10 130.81 419.38 704.20 <
1541 1 -9 2 10 130.81 419.38 704.20 <
1542 3 -9 2 10 130.86 482.68 474.69 <
1542 1 9 -2 10 130.86 482.68 474.69 <
1543 3 8 -2 10 1415.25 1171.09 743.91 <
1543 2 -2 8 -10 1415.25 1171.09 743.91 <
1543 1 -8 2 10 1415.25 1171.09 743.91 <
1544 3 -8 2 10 1404.36 878.32 435.54 o
1544 2 2 -8 -10 1404.36 878.32 435.54 o
1544 1 8 -2 10 1404.36 878.32 435.54 o
1545 3 7 -2 10 4146.77 3473.70 815.83 o
1545 1 -7 2 10 4146.77 3473.70 815.83 o
1546 3 -7 2 10 4136.03 2563.73 501.09 o
1546 1 7 -2 10 4136.03 2563.73 501.09 o
1547 3 6 -2 10 80898.30 83748.60 1107.75 o
1547 2 -2 6 -10 80898.30 83748.60 1107.75 o
1547 1 -6 2 10 80898.30 83748.60 1107.75 o
1548 3 -6 2 10 80949.00 83598.30 615.69 o
1548 2 2 -6 -10 80949.00 83598.30 615.69 o
1548 1 6 -2 10 80949.00 83598.30 615.69 o
1549 3 5 -2 10 52.46 403.55 712.11 <
1549 1 -5 2 10 52.46 403.55 712.11 <
1550 3 -5 2 10 52.09 63.30 435.20 <
1550 1 5 -2 10 52.09 63.30 435.20 <
1551 3 4 -2 10 6859.75 6765.41 783.58 o
1551 2 -2 4 -10 6859.75 6765.41 783.58 o
1551 1 -4 2 10 6859.75 6765.41 783.58 o
1552 3 -4 2 10 6740.66 6433.07 483.79 o
1552 2 2 -4 -10 6740.66 6433.07 483.79 o
1552 1 4 -2 10 6740.66 6433.07 483.79 o
1553 3 3 -2 10 38049.80 38899.10 1067.98 o
1553 1 -3 2 10 38049.80 38899.10 1067.98 o
1554 3 -3 2 10 38107.20 41265.00 620.20 o
1554 1 3 -2 10 38107.20 41265.00 620.20 o
1555 3 2 -2 10 539252.00 586177.00 11434.40 o
1555 2 -2 2 -10 539252.00 586177.00 11434.40 o
1555 1 -2 2 10 539252.00 586177.00 11434.40 o
1556 3 -2 2 10 539098.00 584666.00 11226.50 o
1556 2 2 -2 -10 539098.00 584666.00 11226.50 o
1556 1 2 -2 10 539098.00 584666.00 11226.50 o
1557 3 1 -2 10 5202.77 6504.28 1161.36 o
1557 1 -1 2 10 5202.77 6504.28 1161.36 o
1558 3 -1 2 10 5172.76 6630.89 645.15 o
1558 1 1 -2 10 5172.76 6630.89 645.15 o
1559 3 0 -2 10 3557.42 6828.71 1262.08 o
1559 2 -2 0 -10 3557.42 6828.71 1262.08 o
1559 1 0 2 10 3557.42 6828.71 1262.08 o
1560 3 0 2 10 3676.78 8435.00 876.37 o
1560 2 2 0 -10 3676.78 8435.00 876.37 o
1560 1 0 -2 10 3676.78 8435.00 876.37 o
1561 3 -1 -2 10 5202.78 6599.24 1089.87 o
1561 1 1 2 10 5202.78 6599.24 1089.87 o
1562 3 1 2 10 5172.75 6844.53 1216.26 o
1562 1 -1 -2 10 5172.75 6844.53 1216.26 o
1563 3 -2 -2 10 538989.00 554787.00 1601.68 o
1563 2 -2 -2 -10 538989.00 554787.00 1601.68 o
1563 1 2 2 10 538989.00 554787.00 1601.68 o
1564 3 2 2 10 539360.00 545719.00 2313.41 o
1564 2 2 2 -10 539360.00 545719.00 2313.41 o
1564 1 -2 -2 10 539360.00 545719.00 2313.41 o
1565 3 -3 -2 10 38049.80 39168.10 865.04 o
1565 1 3 2 10 38049.80 39168.10 865.04 o
1566 3 3 2 10 38107.20 39358.00 1055.99 o
1566 1 -3 -2 10 38107.20 39358.00 1055.99 o
1567 3 -4 -2 10 6775.15 6591.33 562.39 o
1567 2 -2 -4 -10 6775.15 6591.33 562.39 o
1567 1 4 2 10 6775.15 6591.33 562.39 o
1568 3 4 2 10 6825.27 6053.26 816.61 o
1568 2 2 4 -10 6825.27 6053.26 816.61 o
1568 1 -4 -2 10 6825.27 6053.26 816.61 o
1569 3 -5 -2 10 52.46 284.86 506.39 <
1569 1 5 2 10 52.46 284.86 506.39 <
1570 3 5 2 10 52.09 -71.21 783.36 <
1570 1 -5 -2 10 52.09 -71.21 783.36 <
1571 3 -6 -2 10 80948.60 81968.20 729.82 o
1571 2 -2 -6 -10 80948.60 81968.20 729.82 o
1571 1 6 2 10 80948.60 81968.20 729.82 o
1572 3 6 2 10 80898.60 83606.20 1077.46 o
1572 2 2 6 -10 80898.60 83606.20 1077.46 o
1572 1 -6 -2 10 80898.60 83606.20 1077.46 o
1573 3 -7 -2 10 4146.77 3228.40 476.58 o
1573 1 7 2 10 4146.77 3228.40 476.58 o
1574 3 -8 -2 10 1402.62 965.36 435.50 o
1574 2 -2 -8 -10 1402.62 965.36 435.50 o
1574 1 8 2 10 1402.62 965.36 435.50 o
1575 3 -9 -2 10 130.81 490.59 435.12 <
1575 1 9 2 10 130.81 490.59 435.12 <
1576 3 -10 -2 10 3541.84 3188.84 435.92 o
1576 2 -2 -10 -10 3541.84 3188.84 435.92 o
1576 1 10 2 10 3541.84 3188.84 435.92 o
1577 3 9 -4 10 341.48 324.42 712.15 <
1577 1 -9 4 10 341.48 324.42 712.15 <
1578 3 -9 4 10 340.18 419.38 474.75 <
1578 1 9 -4 10 340.18 419.38 474.75 <
1579 3 8 -4 10 11942.00 12367.60 900.51 o
1579 2 -4 8 -10 11942.00 12367.60 900.51 o
1579 1 -8 4 10 11942.00 12367.60 900.51 o
1580 3 -8 4 10 11945.50 10990.80 551.23 o
1580 2 4 -8 -10 11945.50 10990.80 551.23 o
1580 1 8 -4 10 11945.50 10990.80 551.23 o
1581 3 7 -4 10 170.64 -221.56 767.53 <
1581 1 -7 4 10 170.64 -221.56 767.53 <
1582 3 -7 4 10 172.40 -31.65 443.12 <
1582 1 7 -4 10 172.40 -31.65 443.12 <
1583 3 6 -4 10 2163.96 1574.64 720.45 o
1583 2 -4 6 -10 2163.96 1574.64 720.45 o
1583 1 -6 4 10 2163.96 1574.64 720.45 o
1584 3 -6 4 10 2153.16 1685.42 570.12 o
1584 2 4 -6 -10 2153.16 1685.42 570.12 o
1584 1 6 -4 10 2153.16 1685.42 570.12 o
1585 3 5 -4 10 5554.19 4510.27 587.85 o
1585 1 -5 4 10 5554.19 4510.27 587.85 o
1586 3 -5 4 10 5550.00 4446.97 572.20 o
1586 1 5 -4 10 5550.00 4446.97 572.20 o
1587 3 4 -4 10 129615.00 129366.00 958.56 o
1587 2 -4 4 -10 129615.00 129366.00 958.56 o
1587 1 -4 4 10 129615.00 129366.00 958.56 o
1588 3 -4 4 10 129549.00 134762.00 718.88 o
1588 2 4 -4 -10 129549.00 134762.00 718.88 o
1588 1 4 -4 10 129549.00 134762.00 718.88 o
1589 3 3 -4 10 1289.69 2168.09 568.95 o
1589 1 -3 4 10 1289.69 2168.09 568.95 o
1590 3 -3 4 10 1288.41 1788.28 545.58 o
1590 1 3 -4 10 1288.41 1788.28 545.58 o
1591 3 2 -4 10 6291.47 6725.84 608.03 o
1591 2 -4 2 -10 6291.47 6725.84 608.03 o
1591 1 -2 4 10 6291.47 6725.84 608.03 o
1592 3 -2 4 10 6409.86 5950.39 586.82 o
1592 2 4 -2 -10 6409.86 5950.39 586.82 o
1592 1 2 -4 10 6409.86 5950.39 586.82 o
1593 3 1 -4 10 11144.70 10634.70 753.66 o
1593 1 -1 4 10 11144.70 10634.70 753.66 o
1594 3 -1 4 10 11163.90 10294.50 684.09 o
1594 1 1 -4 10 11163.90 10294.50 684.09 o
1595 3 0 -4 10 324452.00 309563.00 2351.16 o
1595 2 -4 0 -10 324452.00 309563.00 2351.16 o
1595 1 0 4 10 324452.00 309563.00 2351.16 o
1596 3 0 4 10 324018.00 324542.00 1690.47 o
1596 2 4 0 -10 324018.00 324542.00 1690.47 o
1596 1 0 -4 10 324018.00 324542.00 1690.47 o
1597 3 -1 -4 10 11144.70 10516.10 825.11 o
1597 1 1 4 10 11144.70 10516.10 825.11 o
1598 3 1 4 10 11163.90 11323.20 846.10 o
1598 1 -1 -4 10 11163.90 11323.20 846.10 o
1599 3 -2 -4 10 6374.98 6868.27 845.62 o
1599 2 -4 -2 -10 6374.98 6868.27 845.62 o
1599 1 2 4 10 6374.98 6868.27 845.62 o
1600 3 2 4 10 6326.37 7287.65 796.95 o
1600 2 4 2 -10 6326.37 7287.65 796.95 o
1600 1 -2 -4 10 6326.37 7287.65 796.95 o
1601 3 -3 -4 10 1289.69 2057.32 735.39 o
1601 1 3 4 10 1289.69 2057.32 735.39 o
1602 3 3 4 10 1288.40 1859.50 695.96 o
1602 1 -3 -4 10 1288.40 1859.50 695.96 o
1603 3 -4 -4 10 129502.00 124919.00 1176.26 o
1603 2 -4 -4 -10 129502.00 124919.00 1176.26 o
1603 1 4 4 10 129502.00 124919.00 1176.26 o
1604 3 4 4 10 129662.00 139739.00 1057.97 o
1604 2 4 4 -10 129662.00 139739.00 1057.97 o
1604 1 -4 -4 10 129662.00 139739.00 1057.97 o
1605 3 -5 -4 10 5554.20 4375.75 564.47 o
1605 1 5 4 10 5554.20 4375.75 564.47 o
1606 3 5 4 10 5550.03 4921.73 792.36 o
1606 1 -5 -4 10 5550.03 4921.73 792.36 o
1607 3 -6 -4 10 2145.15 2120.62 530.18 o
1607 2 -4 -6 -10 2145.15 2120.62 530.18 o
1607 1 6 4 10 2145.15 2120.62 530.18 o
1608 3 6 4 10 2171.96 2524.17 862.23 o
1608 2 4 6 -10 2171.96 2524.17 862.23 o
1608 1 -6 -4 10 2171.96 2524.17 862.23 o
1609 3 -7 -4 10 170.64 -332.34 514.29 <
1609 1 7 4 10 170.64 -332.34 514.29 <
1610 3 7 4 10 172.40 830.84 775.31 <
1610 1 -7 -4 10 172.40 830.84 775.31 <
1611 3 -8 -4 10 11951.60 12692.10 565.39 o
1611 2 -4 -8 -10 11951.60 12692.10 565.39 o
1611 1 8 4 10 11951.60 12692.10 565.39 o
1612 3 8 4 10 11935.80 12700.00 907.18 o
1612 2 4 8 -10 11935.80 12700.00 907.18 o
1612 1 -8 -4 10 11935.80 12700.00 907.18 o
1613 3 -9 -4 10 341.48 538.07 443.06 <
1613 1 9 4 10 341.48 538.07 443.06 <
1614 3 8 -6 10 237.25 2500.43 813.72 o
1614 2 -6 8 -10 237.25 2500.43 813.72 o
1614 1 -8 6 10 237.25 2500.43 813.72 o
1615 3 -8 6 10 232.45 1226.48 593.06 o
1615 2 6 -8 -10 232.45 1226.48 593.06 o
1615 1 8 -6 10 232.45 1226.48 593.06 o
1616 3 7 -6 10 596.32 1139.44 561.56 o
1616 1 -7 6 10 596.32 1139.44 561.56 o
1617 3 -7 6 10 594.98 838.75 561.72 <
1617 1 7 -6 10 594.98 838.75 561.72 <
1618 3 6 -6 10 18943.30 17598.00 643.17 o
1618 2 -6 6 -10 18943.30 17598.00 643.17 o
1618 1 -6 6 10 18943.30 17598.00 643.17 o
1619 3 -6 6 10 18959.90 18413.00 613.72 o
1619 2 6 -6 -10 18959.90 18413.00 613.72 o
1619 1 6 -6 10 18959.90 18413.00 613.72 o
1620 3 5 -6 10 437.46 1637.94 561.10 o
1620 1 -5 6 10 437.46 1637.94 561.10 o
1621 3 -5 6 10 437.78 1574.64 545.32 o
1621 1 5 -6 10 437.78 1574.64 545.32 o
1622 3 4 -6 10 1937.74 1337.26 609.69 o
1622 2 -6 4 -10 1937.74 1337.26 609.69 o
1622 1 -4 6 10 1937.74 1337.26 609.69 o
1623 3 -4 6 10 1926.08 1171.09 586.03 <
1623 2 6 -4 -10 1926.08 1171.09 586.03 <
1623 1 4 -6 10 1926.08 1171.09 586.03 <
1624 3 3 -6 10 2756.63 1084.05 586.79 <
1624 1 -3 6 10 2756.63 1084.05 586.79 <
1625 3 -3 6 10 2754.70 1242.30 618.34 o
1625 1 3 -6 10 2754.70 1242.30 618.34 o
1626 3 2 -6 10 85575.00 81169.00 996.83 o
1626 2 -6 2 -10 85575.00 81169.00 996.83 o
1626 1 -2 6 10 85575.00 81169.00 996.83 o
1627 3 -2 6 10 85553.50 82672.50 941.33 o
1627 2 6 -2 -10 85553.50 82672.50 941.33 o
1627 1 2 -6 10 85553.50 82672.50 941.33 o
1628 3 1 -6 10 2113.91 3022.67 592.34 o
1628 1 -1 6 10 2113.91 3022.67 592.34 o
1629 3 -1 6 10 2116.86 4035.50 638.22 o
1629 1 1 -6 10 2116.86 4035.50 638.22 o
1630 3 0 -6 10 3900.69 3718.99 657.04 o
1630 2 -6 0 -10 3900.69 3718.99 657.04 o
1630 1 0 6 10 3900.69 3718.99 657.04 o
1631 3 0 6 10 3936.17 3410.40 641.72 o
1631 2 6 0 -10 3936.17 3410.40 641.72 o
1631 1 0 -6 10 3936.17 3410.40 641.72 o
1632 3 -1 -6 10 2113.91 3307.53 718.77 o
1632 1 1 6 10 2113.91 3307.53 718.77 o
1633 3 1 6 10 2116.86 3370.83 702.83 o
1633 1 -1 -6 10 2116.86 3370.83 702.83 o
1634 3 -2 -6 10 85574.10 82039.40 1124.46 o
1634 2 -6 -2 -10 85574.10 82039.40 1124.46 o
1634 1 2 6 10 85574.10 82039.40 1124.46 o
1635 3 2 6 10 85554.30 91764.20 891.00 o
1635 2 6 2 -10 85554.30 91764.20 891.00 o
1635 1 -2 -6 10 85554.30 91764.20 891.00 o
1636 3 -3 -6 10 2756.64 1851.58 681.26 o
1636 1 3 6 10 2756.64 1851.58 681.26 o
1637 3 3 6 10 2754.70 1012.83 657.89 <
1637 1 -3 -6 10 2754.70 1012.83 657.89 <
1638 3 -4 -6 10 1918.32 1353.08 728.29 <
1638 2 -6 -4 -10 1918.32 1353.08 728.29 <
1638 1 4 6 10 1918.32 1353.08 728.29 <
1639 3 4 6 10 1945.49 1321.43 649.24 o
1639 2 6 4 -10 1945.49 1321.43 649.24 o
1639 1 -4 -6 10 1945.49 1321.43 649.24 o
1640 3 -5 -6 10 437.46 1392.64 664.26 o
1640 1 5 6 10 437.46 1392.64 664.26 o
1641 3 5 6 10 437.78 1084.05 791.09 <
1641 1 -5 -6 10 437.78 1084.05 791.09 <
1642 3 -6 -6 10 18971.50 19251.70 662.51 o
1642 2 -6 -6 -10 18971.50 19251.70 662.51 o
1642 1 6 6 10 18971.50 19251.70 662.51 o
1643 3 6 6 10 18931.70 21008.40 865.41 o
1643 2 6 6 -10 18931.70 21008.40 865.41 o
1643 1 -6 -6 10 18931.70 21008.40 865.41 o
1644 3 -7 -6 10 596.32 300.68 546.04 <
1644 1 7 6 10 596.32 300.68 546.04 <
1645 3 7 6 10 594.98 1970.28 790.57 o
1645 1 -7 -6 10 594.98 1970.28 790.57 o
1646 3 -8 -6 10 231.13 1036.57 601.09 <
1646 2 -6 -8 -10 231.13 1036.57 601.09 <
1646 1 8 6 10 231.13 1036.57 601.09 <
1647 3 8 6 10 238.57 118.69 862.50 <
1647 2 6 8 -10 238.57 118.69 862.50 <
1647 1 -8 -6 10 238.57 118.69 862.50 <
1648 3 6 -8 10 201.49 973.27 624.87 <
1648 2 -8 6 -10 201.49 973.27 624.87 <
1648 1 -6 8 10 201.49 973.27 624.87 <
1649 3 -6 8 10 200.81 1115.70 624.79 <
1649 2 8 -6 -10 200.81 1115.70 624.79 <
1649 1 6 -8 10 200.81 1115.70 624.79 <
1650 3 5 -8 10 401.95 15.83 601.39 <
1650 1 -5 8 10 401.95 15.83 601.39 <
1651 3 -5 8 10 401.94 443.11 561.80 <
1651 1 5 -8 10 401.94 443.11 561.80 <
1652 3 4 -8 10 12894.70 12494.20 706.15 o
1652 2 -8 4 -10 12894.70 12494.20 706.15 o
1652 1 -4 8 10 12894.70 12494.20 706.15 o
1653 3 -4 8 10 12905.50 12454.70 643.29 o
1653 2 8 -4 -10 12905.50 12454.70 643.29 o
1653 1 4 -8 10 12905.50 12454.70 643.29 o
1654 3 3 -8 10 323.48 1028.66 616.95 <
1654 1 -3 8 10 323.48 1028.66 616.95 <
1655 3 -3 8 10 325.13 1020.75 585.29 <
1655 1 3 -8 10 325.13 1020.75 585.29 <
1656 3 2 -8 10 1128.19 1194.83 680.47 <
1656 2 -8 2 -10 1128.19 1194.83 680.47 <
1656 1 -2 8 10 1128.19 1194.83 680.47 <
1657 3 -2 8 10 1129.19 577.63 617.38 <
1657 2 8 -2 -10 1129.19 577.63 617.38 <
1657 1 2 -8 10 1129.19 577.63 617.38 <
1658 3 1 -8 10 745.52 854.58 632.98 <
1658 1 -1 8 10 745.52 854.58 632.98 <
1659 3 -1 8 10 743.25 902.05 617.14 <
1659 1 1 -8 10 743.25 902.05 617.14 <
1660 3 0 -8 10 24849.90 23793.70 776.35 o
1660 2 -8 0 -10 24849.90 23793.70 776.35 o
1660 1 0 8 10 24849.90 23793.70 776.35 o
1661 3 0 8 10 24840.40 25993.40 741.16 o
1661 2 8 0 -10 24840.40 25993.40 741.16 o
1661 1 0 -8 10 24840.40 25993.40 741.16 o
1662 3 -1 -8 10 745.52 633.02 712.18 <
1662 1 1 8 10 745.52 633.02 712.18 <
1663 3 1 8 10 743.25 625.11 640.97 <
1663 1 -1 -8 10 743.25 625.11 640.97 <
1664 3 -2 -8 10 1123.98 506.42 720.22 <
1664 2 -8 -2 -10 1123.98 506.42 720.22 <
1664 1 2 8 10 1123.98 506.42 720.22 <
1665 3 2 8 10 1133.40 1384.73 688.28 o
1665 2 8 2 -10 1133.40 1384.73 688.28 o
1665 1 -2 -8 10 1133.40 1384.73 688.28 o
1666 3 -3 -8 10 323.48 743.80 727.88 <
1666 1 3 8 10 323.48 743.80 727.88 <
1667 3 3 8 10 325.13 735.89 680.40 <
1667 1 -3 -8 10 325.13 735.89 680.40 <
1668 3 -4 -8 10 12909.50 12945.30 799.03 o
1668 2 -8 -4 -10 12909.50 12945.30 799.03 o
1668 1 4 8 10 12909.50 12945.30 799.03 o
1669 3 4 8 10 12890.70 13823.60 715.38 o
1669 2 8 4 -10 12890.70 13823.60 715.38 o
1669 1 -4 -8 10 12890.70 13823.60 715.38 o
1670 3 -5 -8 10 401.95 -174.08 712.15 <
1670 1 5 8 10 401.95 -174.08 712.15 <
1671 3 5 8 10 401.94 269.03 751.73 <
1671 1 -5 -8 10 401.94 269.03 751.73 <
1672 3 -6 -8 10 198.29 435.20 735.86 <
1672 2 -8 -6 -10 198.29 435.20 735.86 <
1672 1 6 8 10 198.29 435.20 735.86 <
1673 3 6 8 10 204.01 1155.26 838.50 <
1673 2 8 6 -10 204.01 1155.26 838.50 <
1673 1 -6 -8 10 204.01 1155.26 838.50 <
1674 3 3 -10 10 124.65 1321.43 703.82 <
1674 1 -3 10 10 124.65 1321.43 703.82 <
1675 3 -3 10 10 124.29 1614.20 656.08 o
1675 1 3 -10 10 124.29 1614.20 656.08 o
1676 3 2 -10 10 4073.77 4526.10 703.48 o
1676 2 -10 2 -10 4073.77 4526.10 703.48 o
1676 1 -2 10 10 4073.77 4526.10 703.48 o
1677 3 -2 10 10 4074.14 3885.16 664.97 o
1677 2 10 -2 -10 4074.14 3885.16 664.97 o
1677 1 2 -10 10 4074.14 3885.16 664.97 o
1678 3 1 -10 10 107.53 1479.69 640.35 o
1678 1 -1 10 10 107.53 1479.69 640.35 o
1679 3 -1 10 10 107.88 822.93 624.93 <
1679 1 1 -10 10 107.88 822.93 624.93 <
1680 3 0 -10 10 288.95 1408.47 695.88 o
1680 2 -10 0 -10 288.95 1408.47 695.88 o
1680 1 0 10 10 288.95 1408.47 695.88 o
1681 3 0 10 10 290.83 925.79 632.83 <
1681 2 10 0 -10 290.83 925.79 632.83 <
1681 1 0 -10 10 290.83 925.79 632.83 <
1682 3 -1 -10 10 107.54 324.42 720.04 <
1682 1 1 10 10 107.54 324.42 720.04 <
1683 3 1 10 10 107.88 1234.39 680.12 <
1683 1 -1 -10 10 107.88 1234.39 680.12 <
1684 3 -2 -10 10 4075.00 3180.93 784.42 o
1684 2 -10 -2 -10 4075.00 3180.93 784.42 o
1684 1 2 10 10 4075.00 3180.93 784.42 o
1685 3 2 10 10 4072.90 3758.56 736.33 o
1685 2 10 2 -10 4072.90 3758.56 736.33 o
1685 1 -2 -10 10 4072.90 3758.56 736.33 o
1686 3 -3 -10 10 124.65 949.53 767.34 <
1686 1 3 10 10 124.65 949.53 767.34 <
1687 3 3 10 10 124.29 1139.44 759.34 <
1687 1 -3 -10 10 124.29 1139.44 759.34 <
1688 3 -10 1 11 2.09 870.40 426.97 o
1688 1 10 -1 11 2.09 870.40 426.97 o
1689 3 -9 1 11 412.47 949.53 474.53 <
1689 2 1 -9 -11 412.47 949.53 474.53 <
1689 1 9 -1 11 412.47 949.53 474.53 <
1690 3 8 -1 11 115.56 -925.79 775.24 <
1690 1 -8 1 11 115.56 -925.79 775.24 <
1691 3 -8 1 11 118.30 917.88 434.88 o
1691 1 8 -1 11 118.30 917.88 434.88 o
1692 3 7 -1 11 4805.35 4644.79 759.89 o
1692 2 -1 7 -11 4805.35 4644.79 759.89 o
1692 1 -7 1 11 4805.35 4644.79 759.89 o
1693 3 -7 1 11 4799.73 4929.65 506.08 o
1693 2 1 -7 -11 4799.73 4929.65 506.08 o
1693 1 7 -1 11 4799.73 4929.65 506.08 o
1694 3 6 -1 11 378.10 -617.20 751.61 <
1694 1 -6 1 11 378.10 -617.20 751.61 <
1695 3 -6 1 11 379.48 553.89 466.80 <
1695 1 6 -1 11 379.48 553.89 466.80 <
1696 3 5 -1 11 22875.60 21791.70 901.27 o
1696 2 -1 5 -11 22875.60 21791.70 901.27 o
1696 1 -5 1 11 22875.60 21791.70 901.27 o
1697 3 -5 1 11 22928.30 20921.30 543.92 o
1697 2 1 -5 -11 22928.30 20921.30 543.92 o
1697 1 5 -1 11 22928.30 20921.30 543.92 o
1698 3 4 -1 11 2402.83 2152.27 933.86 o
1698 1 -4 1 11 2402.83 2152.27 933.86 o
1699 3 -4 1 11 2391.99 2025.67 475.21 o
1699 1 4 -1 11 2391.99 2025.67 475.21 o
1700 3 3 -1 11 152664.00 150073.00 1677.55 o
1700 2 -1 3 -11 152664.00 150073.00 1677.55 o
1700 1 -3 1 11 152664.00 150073.00 1677.55 o
1701 3 -3 1 11 152904.00 161468.00 488.16 o
1701 2 1 -3 -11 152904.00 161468.00 488.16 o
1701 1 3 -1 11 152904.00 161468.00 488.16 o
1702 3 2 -1 11 1329.50 443.11 680.75 <
1702 1 -2 1 11 1329.50 443.11 680.75 <
1703 3 -2 1 11 1304.64 -110.78 688.61 <
1703 1 2 -1 11 1304.64 -110.78 688.61 <
1704 3 1 -1 11 410841.00 387321.00 3020.68 o
1704 2 -1 1 -11 410841.00 387321.00 3020.68 o
1704 1 -1 1 11 410841.00 387321.00 3020.68 o
1705 3 -1 1 11 411423.00 407459.00 2380.81 o
1705 2 1 -1 -11 411423.00 407459.00 2380.81 o
1705 1 1 -1 11 411423.00 407459.00 2380.81 o
1706 3 -1 -1 11 411832.00 377430.00 3752.09 o
1706 2 -1 -1 -11 411832.00 377430.00 3752.09 o
1706 1 1 1 11 411832.00 377430.00 3752.09 o
1707 3 1 1 11 410433.00 388714.00 3395.49 o
1707 2 1 1 -11 410433.00 388714.00 3395.49 o
1707 1 -1 -1 11 410433.00 388714.00 3395.49 o
1708 3 -2 -1 11 1329.49 15.83 957.61 <
1708 1 2 1 11 1329.49 15.83 957.61 <
1709 3 2 1 11 1304.62 862.49 862.63 <
1709 1 -2 -1 11 1304.62 862.49 862.63 <
1710 3 -3 -1 11 152989.00 154069.00 1311.83 o
1710 2 -1 -3 -11 152989.00 154069.00 1311.83 o
1710 1 3 1 11 152989.00 154069.00 1311.83 o
1711 3 3 1 11 152579.00 156332.00 1154.45 o
1711 2 1 3 -11 152579.00 156332.00 1154.45 o
1711 1 -3 -1 11 152579.00 156332.00 1154.45 o
1712 3 -4 -1 11 2402.82 1384.73 673.28 o
1712 1 4 1 11 2402.82 1384.73 673.28 o
1713 3 4 1 11 2392.00 1329.34 649.58 o
1713 1 -4 -1 11 2392.00 1329.34 649.58 o
1714 3 -5 -1 11 22927.70 21720.50 729.88 o
1714 2 -1 -5 -11 22927.70 21720.50 729.88 o
1714 1 5 1 11 22927.70 21720.50 729.88 o
1715 3 5 1 11 22876.30 22155.70 898.94 o
1715 2 1 5 -11 22876.30 22155.70 898.94 o
1715 1 -5 -1 11 22876.30 22155.70 898.94 o
1716 3 -6 -1 11 378.10 783.36 530.02 <
1716 1 6 1 11 378.10 783.36 530.02 <
1717 3 -7 -1 11 4812.58 4336.19 428.62 o
1717 2 -1 -7 -11 4812.58 4336.19 428.62 o
1717 1 7 1 11 4812.58 4336.19 428.62 o
1718 3 -8 -1 11 115.56 807.10 411.20 <
1718 1 8 1 11 115.56 807.10 411.20 <
1719 3 -9 -1 11 411.42 704.23 435.09 <
1719 2 -1 -9 -11 411.42 704.23 435.09 <
1719 1 9 1 11 411.42 704.23 435.09 <
1720 3 -10 -1 11 2.09 688.41 411.26 <
1720 1 10 1 11 2.09 688.41 411.26 <
1721 3 10 -3 11 50.81 1289.78 735.49 <
1721 1 -10 3 11 50.81 1289.78 735.49 <
1722 3 -10 3 11 50.80 1107.79 506.00 o
1722 1 10 -3 11 50.80 1107.79 506.00 o
1723 3 9 -3 11 1322.41 917.88 838.89 <
1723 2 -3 9 -11 1322.41 917.88 838.89 <
1723 1 -9 3 11 1322.41 917.88 838.89 <
1724 3 -9 3 11 1321.38 1527.16 482.51 o
1724 2 3 -9 -11 1321.38 1527.16 482.51 o
1724 1 9 -3 11 1321.38 1527.16 482.51 o
1725 3 8 -3 11 10.73 -498.50 814.96 <
1725 1 -8 3 11 10.73 -498.50 814.96 <
1726 3 -8 3 11 11.23 498.50 482.59 <
1726 1 8 -3 11 11.23 498.50 482.59 <
1727 3 7 -3 11 1630.77 1226.48 744.00 <
1727 2 -3 7 -11 1630.77 1226.48 744.00 <
1727 1 -7 3 11 1630.77 1226.48 744.00 <
1728 3 -7 3 11 1627.18 1724.98 474.67 o
1728 2 3 -7 -11 1627.18 1724.98 474.67 o
1728 1 7 -3 11 1627.18 1724.98 474.67 o
1729 3 6 -3 11 532.82 830.84 759.55 <
1729 1 -6 3 11 532.82 830.84 759.55 <
1730 3 -6 3 11 534.85 31.65 474.82 <
1730 1 6 -3 11 534.85 31.65 474.82 <
1731 3 5 -3 11 24248.20 22725.40 834.31 o
1731 2 -3 5 -11 24248.20 22725.40 834.31 o
1731 1 -5 3 11 24248.20 22725.40 834.31 o
1732 3 -5 3 11 24258.90 24806.50 507.29 o
1732 2 3 -5 -11 24258.90 24806.50 507.29 o
1732 1 5 -3 11 24258.90 24806.50 507.29 o
1733 3 4 -3 11 390.45 561.81 735.85 <
1733 1 -4 3 11 390.45 561.81 735.85 <
1734 3 -4 3 11 388.02 23.74 546.01 <
1734 1 4 -3 11 388.02 23.74 546.01 <
1735 3 3 -3 11 56159.90 58578.10 1016.38 o
1735 2 -3 3 -11 56159.90 58578.10 1016.38 o
1735 1 -3 3 11 56159.90 58578.10 1016.38 o
1736 3 -3 3 11 56157.90 54700.90 794.98 o
1736 2 3 -3 -11 56157.90 54700.90 794.98 o
1736 1 3 -3 11 56157.90 54700.90 794.98 o
1737 3 2 -3 11 213.41 237.38 648.84 <
1737 1 -2 3 11 213.41 237.38 648.84 <
1738 3 -2 3 11 214.45 -134.52 680.49 <
1738 1 2 -3 11 214.45 -134.52 680.49 <
1739 3 1 -3 11 154883.00 159387.00 1222.58 o
1739 2 -3 1 -11 154883.00 159387.00 1222.58 o
1739 1 -1 3 11 154883.00 159387.00 1222.58 o
1740 3 -1 3 11 154954.00 157962.00 1170.96 o
1740 2 3 -1 -11 154954.00 157962.00 1170.96 o
1740 1 1 -3 11 154954.00 157962.00 1170.96 o
1741 3 -1 -3 11 155088.00 155478.00 1564.35 o
1741 2 -3 -1 -11 155088.00 155478.00 1564.35 o
1741 1 1 3 11 155088.00 155478.00 1564.35 o
1742 3 1 3 11 154749.00 158936.00 1467.22 o
1742 2 3 1 -11 154749.00 158936.00 1467.22 o
1742 1 -1 -3 11 154749.00 158936.00 1467.22 o
1743 3 -2 -3 11 213.41 577.63 870.35 <
1743 1 2 3 11 213.41 577.63 870.35 <
1744 3 2 3 11 214.45 767.54 870.30 <
1744 1 -2 -3 11 214.45 767.54 870.30 <
1745 3 -3 -3 11 56156.50 53458.60 1043.11 o
1745 2 -3 -3 -11 56156.50 53458.60 1043.11 o
1745 1 3 3 11 56156.50 53458.60 1043.11 o
1746 3 3 3 11 56161.20 58609.80 1048.66 o
1746 2 3 3 -11 56161.20 58609.80 1048.66 o
1746 1 -3 -3 11 56161.20 58609.80 1048.66 o
1747 3 -4 -3 11 390.45 -87.04 585.56 <
1747 1 4 3 11 390.45 -87.04 585.56 <
1748 3 4 3 11 388.01 1068.22 767.34 <
1748 1 -4 -3 11 388.01 1068.22 767.34 <
1749 3 -5 -3 11 24270.50 24410.80 655.37 o
1749 2 -3 -5 -11 24270.50 24410.80 655.37 o
1749 1 5 3 11 24270.50 24410.80 655.37 o
1750 3 5 3 11 24236.60 23295.20 877.19 o
1750 2 3 5 -11 24236.60 23295.20 877.19 o
1750 1 -5 -3 11 24236.60 23295.20 877.19 o
1751 3 -6 -3 11 532.82 197.82 514.38 <
1751 1 6 3 11 532.82 197.82 514.38 <
1752 3 6 3 11 534.85 -593.46 822.85 <
1752 1 -6 -3 11 534.85 -593.46 822.85 <
1753 3 -7 -3 11 1632.22 2088.97 545.55 o
1753 2 -3 -7 -11 1632.22 2088.97 545.55 o
1753 1 7 3 11 1632.22 2088.97 545.55 o
1754 3 7 3 11 1625.73 941.62 720.36 <
1754 2 3 7 -11 1625.73 941.62 720.36 <
1754 1 -7 -3 11 1625.73 941.62 720.36 <
1755 3 -8 -3 11 10.73 -387.73 482.62 <
1755 1 8 3 11 10.73 -387.73 482.62 <
1756 3 -9 -3 11 1323.88 1590.46 450.79 o
1756 2 -3 -9 -11 1323.88 1590.46 450.79 o
1756 1 9 3 11 1323.88 1590.46 450.79 o
1757 3 -10 -3 11 50.81 1171.09 450.50 o
1757 1 10 3 11 50.81 1171.09 450.50 o
1758 3 9 -5 11 110.96 553.89 822.87 <
1758 2 -5 9 -11 110.96 553.89 822.87 <
1758 1 -9 5 11 110.96 553.89 822.87 <
1759 3 -9 5 11 110.86 7.91 482.68 <
1759 2 5 -9 -11 110.86 7.91 482.68 <
1759 1 9 -5 11 110.86 7.91 482.68 <
1760 3 8 -5 11 139.76 1535.07 774.94 <
1760 1 -8 5 11 139.76 1535.07 774.94 <
1761 3 -8 5 11 140.22 1463.86 489.85 o
1761 1 8 -5 11 140.22 1463.86 489.85 o
1762 3 7 -5 11 4499.58 6306.47 891.06 o
1762 2 -5 7 -11 4499.58 6306.47 891.06 o
1762 1 -7 5 11 4499.58 6306.47 891.06 o
1763 3 -7 5 11 4502.48 5261.98 631.42 o
1763 2 5 -7 -11 4502.48 5261.98 631.42 o
1763 1 7 -5 11 4502.48 5261.98 631.42 o
1764 3 6 -5 11 21.46 316.51 561.78 <
1764 1 -6 5 11 21.46 316.51 561.78 <
1765 3 -6 5 11 21.11 878.32 545.73 <
1765 1 6 -5 11 21.11 878.32 545.73 <
1766 3 5 -5 11 3453.45 4747.65 606.83 o
1766 2 -5 5 -11 3453.45 4747.65 606.83 o
1766 1 -5 5 11 3453.45 4747.65 606.83 o
1767 3 -5 5 11 3455.87 3608.22 593.21 o
1767 2 5 -5 -11 3455.87 3608.22 593.21 o
1767 1 5 -5 11 3455.87 3608.22 593.21 o
1768 3 4 -5 11 278.19 379.81 585.53 <
1768 1 -4 5 11 278.19 379.81 585.53 <
1769 3 -4 5 11 276.68 363.99 617.18 <
1769 1 4 -5 11 276.68 363.99 617.18 <
1770 3 3 -5 11 24740.90 24545.40 658.71 o
1770 2 -5 3 -11 24740.90 24545.40 658.71 o
1770 1 -3 5 11 24740.90 24545.40 658.71 o
1771 3 -3 5 11 24759.80 23675.00 698.44 o
1771 2 5 -3 -11 24759.80 23675.00 698.44 o
1771 1 3 -5 11 24759.80 23675.00 698.44 o
1772 3 2 -5 11 4.61 1076.13 648.53 <
1772 1 -2 5 11 4.61 1076.13 648.53 <
1773 3 -2 5 11 5.49 743.80 561.63 <
1773 1 2 -5 11 5.49 743.80 561.63 <
1774 3 1 -5 11 22886.80 21261.60 771.96 o
1774 2 -5 1 -11 22886.80 21261.60 771.96 o
1774 1 -1 5 11 22886.80 21261.60 771.96 o
1775 3 -1 5 11 22863.80 22432.70 707.91 o
1775 2 5 -1 -11 22863.80 22432.70 707.91 o
1775 1 1 -5 11 22863.80 22432.70 707.91 o
1776 3 -1 -5 11 22885.20 21419.80 833.27 o
1776 2 -5 -1 -11 22885.20 21419.80 833.27 o
1776 1 1 5 11 22885.20 21419.80 833.27 o
1777 3 1 5 11 22865.40 23121.10 813.09 o
1777 2 5 1 -11 22865.40 23121.10 813.09 o
1777 1 -1 -5 11 22865.40 23121.10 813.09 o
1778 3 -2 -5 11 4.61 -395.64 751.67 <
1778 1 2 5 11 4.61 -395.64 751.67 <
1779 3 2 5 11 5.49 -276.95 712.13 <
1779 1 -2 -5 11 5.49 -276.95 712.13 <
1780 3 -3 -5 11 24769.00 25249.60 906.43 o
1780 2 -5 -3 -11 24769.00 25249.60 906.43 o
1780 1 3 5 11 24769.00 25249.60 906.43 o
1781 3 3 5 11 24731.70 25827.20 813.84 o
1781 2 5 3 -11 24731.70 25827.20 813.84 o
1781 1 -3 -5 11 24731.70 25827.20 813.84 o
1782 3 -4 -5 11 278.19 -917.88 688.17 <
1782 1 4 5 11 278.19 -917.88 688.17 <
1783 3 4 5 11 276.68 269.03 799.19 <
1783 1 -4 -5 11 276.68 269.03 799.19 <
1784 3 -5 -5 11 3457.57 3995.94 576.68 o
1784 2 -5 -5 -11 3457.57 3995.94 576.68 o
1784 1 5 5 11 3457.57 3995.94 576.68 o
1785 3 5 5 11 3451.76 3956.38 838.14 o
1785 2 5 5 -11 3451.76 3956.38 838.14 o
1785 1 -5 -5 11 3451.76 3956.38 838.14 o
1786 3 -6 -5 11 21.46 466.85 577.57 <
1786 1 6 5 11 21.46 466.85 577.57 <
1787 3 6 5 11 21.11 -403.55 783.33 <
1787 1 -6 -5 11 21.11 -403.55 783.33 <
1788 3 -7 -5 11 4506.71 5151.20 584.09 o
1788 2 -5 -7 -11 4506.71 5151.20 584.09 o
1788 1 7 5 11 4506.71 5151.20 584.09 o
1789 3 7 5 11 4495.35 4913.82 822.28 o
1789 2 5 7 -11 4495.35 4913.82 822.28 o
1789 1 -7 -5 11 4495.35 4913.82 822.28 o
1790 3 -8 -5 11 139.76 1163.17 553.49 o
1790 1 8 5 11 139.76 1163.17 553.49 o
1791 3 8 5 11 140.22 39.56 878.32 <
1791 1 -8 -5 11 140.22 39.56 878.32 <
1792 3 -9 -5 11 110.87 -245.29 561.78 <
1792 2 -5 -9 -11 110.87 -245.29 561.78 <
1792 1 9 5 11 110.87 -245.29 561.78 <
1793 3 7 -7 11 183.84 1764.54 624.27 o
1793 2 -7 7 -11 183.84 1764.54 624.27 o
1793 1 -7 7 11 183.84 1764.54 624.27 o
1794 3 -7 7 11 183.85 997.01 609.02 <
1794 2 7 -7 -11 183.85 997.01 609.02 <
1794 1 7 -7 11 183.85 997.01 609.02 <
1795 3 6 -7 11 111.69 1281.87 553.39 o
1795 1 -6 7 11 111.69 1281.87 553.39 o
1796 3 -6 7 11 110.77 94.95 577.63 <
1796 1 6 -7 11 110.77 94.95 577.63 <
1797 3 5 -7 11 4683.09 5293.63 584.13 o
1797 2 -7 5 -11 4683.09 5293.63 584.13 o
1797 1 -5 7 11 4683.09 5293.63 584.13 o
1798 3 -5 7 11 4690.41 4644.79 569.82 o
1798 2 7 -5 -11 4690.41 4644.79 569.82 o
1798 1 5 -7 11 4690.41 4644.79 569.82 o
1799 3 4 -7 11 4.36 245.29 601.35 <
1799 1 -4 7 11 4.36 245.29 601.35 <
1800 3 -4 7 11 4.24 300.68 601.34 <
1800 1 4 -7 11 4.24 300.68 601.34 <
1801 3 3 -7 11 1638.80 1147.35 593.75 <
1801 2 -7 3 -11 1638.80 1147.35 593.75 <
1801 1 -3 7 11 1638.80 1147.35 593.75 <
1802 3 -3 7 11 1650.41 2445.04 600.60 o
1802 2 7 -3 -11 1650.41 2445.04 600.60 o
1802 1 3 -7 11 1650.41 2445.04 600.60 o
1803 3 2 -7 11 52.98 783.36 609.11 <
1803 1 -2 7 11 52.98 783.36 609.11 <
1804 3 -2 7 11 55.01 1171.09 561.38 o
1804 1 2 -7 11 55.01 1171.09 561.38 o
1805 3 1 -7 11 4572.60 3307.53 666.56 o
1805 2 -7 1 -11 4572.60 3307.53 666.56 o
1805 1 -1 7 11 4572.60 3307.53 666.56 o
1806 3 -1 7 11 4600.78 4628.96 585.48 o
1806 2 7 -1 -11 4600.78 4628.96 585.48 o
1806 1 1 -7 11 4600.78 4628.96 585.48 o
1807 3 -1 -7 11 4603.75 4605.22 704.23 o
1807 2 -7 -1 -11 4603.75 4605.22 704.23 o
1807 1 1 7 11 4603.75 4605.22 704.23 o
1808 3 1 7 11 4569.62 4162.11 665.37 o
1808 2 7 1 -11 4569.62 4162.11 665.37 o
1808 1 -1 -7 11 4569.62 4162.11 665.37 o
1809 3 -2 -7 11 52.98 664.67 664.56 <
1809 1 2 7 11 52.98 664.67 664.56 <
1810 3 2 7 11 55.01 451.03 704.19 <
1810 1 -2 -7 11 55.01 451.03 704.19 <
1811 3 -3 -7 11 1651.01 2041.49 688.12 o
1811 2 -7 -3 -11 1651.01 2041.49 688.12 o
1811 1 3 7 11 1651.01 2041.49 688.12 o
1812 3 3 7 11 1638.20 2896.07 671.35 o
1812 2 7 3 -11 1638.20 2896.07 671.35 o
1812 1 -3 -7 11 1638.20 2896.07 671.35 o
1813 3 -4 -7 11 4.36 -435.20 704.19 <
1813 1 4 7 11 4.36 -435.20 704.19 <
1814 3 4 7 11 4.24 -379.81 656.72 <
1814 1 -4 -7 11 4.24 -379.81 656.72 <
1815 3 -5 -7 11 4693.35 6077.00 764.83 o
1815 2 -7 -5 -11 4693.35 6077.00 764.83 o
1815 1 5 7 11 4693.35 6077.00 764.83 o
1816 3 5 7 11 4680.15 5966.22 757.12 o
1816 2 7 5 -11 4680.15 5966.22 757.12 o
1816 1 -5 -7 11 4680.15 5966.22 757.12 o
1817 3 -6 -7 11 111.69 -387.73 625.06 <
1817 1 6 7 11 111.69 -387.73 625.06 <
1818 3 6 7 11 110.77 -474.77 807.05 <
1818 1 -6 -7 11 110.77 -474.77 807.05 <
1819 3 -7 -7 11 183.85 1060.31 616.90 <
1819 2 -7 -7 -11 183.85 1060.31 616.90 <
1819 1 7 7 11 183.85 1060.31 616.90 <
1820 3 7 7 11 183.84 2160.18 853.65 o
1820 2 7 7 -11 183.84 2160.18 853.65 o
1820 1 -7 -7 11 183.84 2160.18 853.65 o
1821 3 5 -9 11 139.31 1091.96 648.54 <
1821 2 -9 5 -11 139.31 1091.96 648.54 <
1821 1 -5 9 11 139.31 1091.96 648.54 <
1822 3 -5 9 11 139.37 704.23 609.16 <
1822 2 9 -5 -11 139.37 704.23 609.16 <
1822 1 5 -9 11 139.37 704.23 609.16 <
1823 3 4 -9 11 33.67 316.51 648.82 <
1823 1 -4 9 11 33.67 316.51 648.82 <
1824 3 -4 9 11 33.60 110.78 569.72 <
1824 1 4 -9 11 33.60 110.78 569.72 <
1825 3 3 -9 11 1448.08 2168.09 632.43 o
1825 2 -9 3 -11 1448.08 2168.09 632.43 o
1825 1 -3 9 11 1448.08 2168.09 632.43 o
1826 3 -3 9 11 1453.55 680.50 562.15 <
1826 2 9 -3 -11 1453.55 680.50 562.15 <
1826 1 3 -9 11 1453.55 680.50 562.15 <
1827 3 2 -9 11 2.32 -39.56 688.41 <
1827 1 -2 9 11 2.32 -39.56 688.41 <
1828 3 -2 9 11 2.28 -332.34 664.64 <
1828 1 2 -9 11 2.28 -332.34 664.64 <
1829 3 1 -9 11 403.11 553.89 664.64 <
1829 2 -9 1 -11 403.11 553.89 664.64 <
1829 1 -1 9 11 403.11 553.89 664.64 <
1830 3 -1 9 11 400.60 316.51 593.47 <
1830 2 9 -1 -11 400.60 316.51 593.47 <
1830 1 1 -9 11 400.60 316.51 593.47 <
1831 3 -1 -9 11 400.57 411.46 656.76 <
1831 2 -9 -1 -11 400.57 411.46 656.76 <
1831 1 1 9 11 400.57 411.46 656.76 <
1832 3 1 9 11 403.14 640.93 609.22 <
1832 2 9 1 -11 403.14 640.93 609.22 <
1832 1 -1 -9 11 403.14 640.93 609.22 <
1833 3 -2 -9 11 2.32 324.42 712.12 <
1833 1 2 9 11 2.32 324.42 712.12 <
1834 3 2 9 11 2.28 181.99 625.10 <
1834 1 -2 -9 11 2.28 181.99 625.10 <
1835 3 -3 -9 11 1454.16 1756.63 775.28 o
1835 2 -9 -3 -11 1454.16 1756.63 775.28 o
1835 1 3 9 11 1454.16 1756.63 775.28 o
1836 3 3 9 11 1447.48 2065.23 703.80 o
1836 2 9 3 -11 1447.48 2065.23 703.80 o
1836 1 -3 -9 11 1447.48 2065.23 703.80 o
1837 3 -4 -9 11 33.67 324.42 775.43 <
1837 1 4 9 11 33.67 324.42 775.43 <
1838 3 4 9 11 33.60 245.29 727.96 <
1838 1 -4 -9 11 33.60 245.29 727.96 <
1839 3 -5 -9 11 139.33 1107.79 814.77 <
1839 2 -9 -5 -11 139.33 1107.79 814.77 <
1839 1 5 9 11 139.33 1107.79 814.77 <
1840 3 5 9 11 139.35 1044.48 806.88 <
1840 2 9 5 -11 139.35 1044.48 806.88 <
1840 1 -5 -9 11 139.35 1044.48 806.88 <
1841 3 0 0 12 471621.00 522400.00 10103.70 o
1841 2 0 0 -12 471621.00 522400.00 10103.70 o
1841 1 0 0 12 471621.00 522400.00 10103.70 o
1842 3 -1 0 12 1357.06 2492.52 735.02 o
1842 1 1 0 12 1357.06 2492.52 735.02 o
1843 3 1 0 12 1357.06 2294.70 719.37 o
1843 1 -1 0 12 1357.06 2294.70 719.37 o
1844 3 -2 0 12 45046.00 41866.40 994.73 o
1844 2 0 -2 -12 45046.00 41866.40 994.73 o
1844 1 2 0 12 45046.00 41866.40 994.73 o
1845 3 2 0 12 45791.70 41344.10 956.71 o
1845 2 0 2 -12 45791.70 41344.10 956.71 o
1845 1 -2 0 12 45791.70 41344.10 956.71 o
1846 3 -3 0 12 16094.90 14227.10 792.75 o
1846 1 3 0 12 16094.90 14227.10 792.75 o
1847 3 3 0 12 16094.90 14543.60 759.95 o
1847 1 -3 0 12 16094.90 14543.60 759.95 o
1848 3 -4 0 12 102369.00 103380.00 952.45 o
1848 2 0 -4 -12 102369.00 103380.00 952.45 o
1848 1 4 0 12 102369.00 103380.00 952.45 o
1849 3 4 0 12 102908.00 106419.00 875.02 o
1849 2 0 4 -12 102908.00 106419.00 875.02 o
1849 1 -4 0 12 102908.00 106419.00 875.02 o
1850 3 -5 0 12 320.07 308.60 561.81 <
1850 1 5 0 12 320.07 308.60 561.81 <
1851 3 5 0 12 320.07 1250.22 885.97 <
1851 1 -5 0 12 320.07 1250.22 885.97 <
1852 3 -6 0 12 222.50 -245.29 451.00 <
1852 2 0 -6 -12 222.50 -245.29 451.00 <
1852 1 6 0 12 222.50 -245.29 451.00 <
1853 3 6 0 12 215.24 -15.83 720.07 <
1853 2 0 6 -12 215.24 -15.83 720.07 <
1853 1 -6 0 12 215.24 -15.83 720.07 <
1854 3 -7 0 12 1511.29 933.71 506.76 <
1854 1 7 0 12 1511.29 933.71 506.76 <
1855 3 7 0 12 1511.29 229.47 712.46 <
1855 1 -7 0 12 1511.29 229.47 712.46 <
1856 3 -8 0 12 3286.28 2959.37 404.21 o
1856 2 0 -8 -12 3286.28 2959.37 404.21 o
1856 1 8 0 12 3286.28 2959.37 404.21 o
1857 3 -9 0 12 48.19 680.50 411.27 <
1857 1 9 0 12 48.19 680.50 411.27 <
1858 3 -10 0 12 31.19 640.93 427.12 <
1858 2 0 -10 -12 31.19 640.93 427.12 <
1858 1 10 0 12 31.19 640.93 427.12 <
1859 3 -10 2 12 570.32 1028.66 498.29 o
1859 2 2 -10 -12 570.32 1028.66 498.29 o
1859 1 10 -2 12 570.32 1028.66 498.29 o
1860 3 9 -2 12 107.83 197.82 807.10 <
1860 1 -9 2 12 107.83 197.82 807.10 <
1861 3 -9 2 12 106.05 213.64 490.58 <
1861 1 9 -2 12 106.05 213.64 490.58 <
1862 3 8 -2 12 145.99 269.03 712.14 <
1862 2 -2 8 -12 145.99 269.03 712.14 <
1862 1 -8 2 12 145.99 269.03 712.14 <
1863 3 -8 2 12 143.54 403.55 458.89 <
1863 2 2 -8 -12 143.54 403.55 458.89 <
1863 1 8 -2 12 143.54 403.55 458.89 <
1864 3 7 -2 12 92.26 -1289.78 751.30 <
1864 1 -7 2 12 92.26 -1289.78 751.30 <
1865 3 -7 2 12 93.27 -197.82 451.01 <
1865 1 7 -2 12 93.27 -197.82 451.01 <
1866 3 6 -2 12 16589.40 14765.20 855.45 o
1866 2 -2 6 -12 16589.40 14765.20 855.45 o
1866 1 -6 2 12 16589.40 14765.20 855.45 o
1867 3 -6 2 12 16563.60 13997.70 541.35 o
1867 2 2 -6 -12 16563.60 13997.70 541.35 o
1867 1 6 -2 12 16563.60 13997.70 541.35 o
1868 3 5 -2 12 4787.59 4114.63 729.04 o
1868 1 -5 2 12 4787.59 4114.63 729.04 o
1869 3 -5 2 12 4765.44 3703.17 453.57 o
1869 1 5 -2 12 4765.44 3703.17 453.57 o
1870 3 4 -2 12 3042.10 3125.54 751.62 o
1870 2 -2 4 -12 3042.10 3125.54 751.62 o
1870 1 -4 2 12 3042.10 3125.54 751.62 o
1871 3 -4 2 12 3014.45 3885.16 465.06 o
1871 2 2 -4 -12 3014.45 3885.16 465.06 o
1871 1 4 -2 12 3014.45 3885.16 465.06 o
1872 3 3 -2 12 503.59 664.67 807.07 <
1872 1 -3 2 12 503.59 664.67 807.07 <
1873 3 -3 2 12 497.09 601.37 498.47 <
1873 1 3 -2 12 497.09 601.37 498.47 <
1874 3 2 -2 12 224850.00 212133.00 2166.52 o
1874 2 -2 2 -12 224850.00 212133.00 2166.52 o
1874 1 -2 2 12 224850.00 212133.00 2166.52 o
1875 3 -2 2 12 224560.00 235626.00 278.85 o
1875 2 2 -2 -12 224560.00 235626.00 278.85 o
1875 1 2 -2 12 224560.00 235626.00 278.85 o
1876 3 1 -2 12 7239.37 6607.15 1061.39 o
1876 1 -1 2 12 7239.37 6607.15 1061.39 o
1877 3 -1 2 12 7248.43 7936.49 694.29 o
1877 1 1 -2 12 7248.43 7936.49 694.29 o
1878 3 0 -2 12 49448.90 43892.10 1356.53 o
1878 2 -2 0 -12 49448.90 43892.10 1356.53 o
1878 1 0 2 12 49448.90 43892.10 1356.53 o
1879 3 0 2 12 49756.20 43773.40 1060.35 o
1879 2 2 0 -12 49756.20 43773.40 1060.35 o
1879 1 0 -2 12 49756.20 43773.40 1060.35 o
1880 3 -1 -2 12 7239.40 7801.98 1082.99 o
1880 1 1 2 12 7239.40 7801.98 1082.99 o
1881 3 1 2 12 7248.41 7794.06 1098.87 o
1881 1 -1 -2 12 7248.41 7794.06 1098.87 o
1882 3 -2 -2 12 224357.00 223282.00 1816.03 o
1882 2 -2 -2 -12 224357.00 223282.00 1816.03 o
1882 1 2 2 12 224357.00 223282.00 1816.03 o
1883 3 2 2 12 225053.00 235697.00 1432.50 o
1883 2 2 2 -12 225053.00 235697.00 1432.50 o
1883 1 -2 -2 12 225053.00 235697.00 1432.50 o
1884 3 -3 -2 12 503.58 261.12 648.88 <
1884 1 3 2 12 503.58 261.12 648.88 <
1885 3 3 2 12 497.08 -15.83 799.22 <
1885 1 -3 -2 12 497.08 -15.83 799.22 <
1886 3 -4 -2 12 3046.38 3537.00 537.25 o
1886 2 -2 -4 -12 3046.38 3537.00 537.25 o
1886 1 4 2 12 3046.38 3537.00 537.25 o
1887 3 4 2 12 3010.18 4201.67 797.67 o
1887 2 2 4 -12 3010.18 4201.67 797.67 o
1887 1 -4 -2 12 3010.18 4201.67 797.67 o
1888 3 -5 -2 12 4787.60 3853.51 571.54 o
1888 1 5 2 12 4787.60 3853.51 571.54 o
1889 3 5 2 12 4765.43 3877.25 768.82 o
1889 1 -5 -2 12 4765.43 3877.25 768.82 o
1890 3 -6 -2 12 16568.60 14622.80 568.02 o
1890 2 -2 -6 -12 16568.60 14622.80 568.02 o
1890 1 6 2 12 16568.60 14622.80 568.02 o
1891 3 6 2 12 16584.40 16624.70 901.86 o
1891 2 2 6 -12 16584.40 16624.70 901.86 o
1891 1 -6 -2 12 16584.40 16624.70 901.86 o
1892 3 -7 -2 12 92.26 435.20 443.05 <
1892 1 7 2 12 92.26 435.20 443.05 <
1893 3 -8 -2 12 147.15 55.39 427.29 <
1893 2 -2 -8 -12 147.15 55.39 427.29 <
1893 1 8 2 12 147.15 55.39 427.29 <
1894 3 -9 -2 12 107.83 -110.78 451.02 <
1894 1 9 2 12 107.83 -110.78 451.02 <
1895 3 -10 -2 12 569.92 1408.47 442.54 o
1895 2 -2 -10 -12 569.92 1408.47 442.54 o
1895 1 10 2 12 569.92 1408.47 442.54 o
1896 3 9 -4 12 125.31 989.09 814.82 <
1896 1 -9 4 12 125.31 989.09 814.82 <
1897 3 -9 4 12 126.78 735.89 482.50 <
1897 1 9 -4 12 126.78 735.89 482.50 <
1898 3 8 -4 12 2411.40 2025.67 846.93 o
1898 2 -4 8 -12 2411.40 2025.67 846.93 o
1898 1 -8 4 12 2411.40 2025.67 846.93 o
1899 3 -8 4 12 2410.46 2793.20 521.72 o
1899 2 4 -8 -12 2410.46 2793.20 521.72 o
1899 1 8 -4 12 2410.46 2793.20 521.72 o
1900 3 7 -4 12 402.18 735.89 814.95 <
1900 1 -7 4 12 402.18 735.89 814.95 <
1901 3 -7 4 12 395.12 356.07 482.69 <
1901 1 7 -4 12 395.12 356.07 482.69 <
1902 3 6 -4 12 111.10 166.17 759.62 <
1902 2 -4 6 -12 111.10 166.17 759.62 <
1902 1 -6 4 12 111.10 166.17 759.62 <
1903 3 -6 4 12 111.12 -363.99 458.88 <
1903 2 4 -6 -12 111.12 -363.99 458.88 <
1903 1 6 -4 12 111.12 -363.99 458.88 <
1904 3 5 -4 12 736.63 902.05 767.49 <
1904 1 -5 4 12 736.63 902.05 767.49 <
1905 3 -5 4 12 742.99 -63.30 593.53 <
1905 1 5 -4 12 742.99 -63.30 593.53 <
1906 3 4 -4 12 32913.00 33091.10 694.07 o
1906 2 -4 4 -12 32913.00 33091.10 694.07 o
1906 1 -4 4 12 32913.00 33091.10 694.07 o
1907 3 -4 4 12 32974.60 33415.60 674.72 o
1907 2 4 -4 -12 32974.60 33415.60 674.72 o
1907 1 4 -4 12 32974.60 33415.60 674.72 o
1908 3 3 -4 12 2568.49 2342.18 593.70 o
1908 1 -3 4 12 2568.49 2342.18 593.70 o
1909 3 -3 4 12 2557.87 2096.88 570.20 o
1909 1 3 -4 12 2557.87 2096.88 570.20 o
1910 3 2 -4 12 3076.45 3679.43 608.36 o
1910 2 -4 2 -12 3076.45 3679.43 608.36 o
1910 1 -2 4 12 3076.45 3679.43 608.36 o
1911 3 -2 4 12 3152.08 3331.27 609.03 o
1911 2 4 -2 -12 3152.08 3331.27 609.03 o
1911 1 2 -4 12 3152.08 3331.27 609.03 o
1912 3 1 -4 12 1904.88 2041.49 632.91 o
1912 1 -1 4 12 1904.88 2041.49 632.91 o
1913 3 -1 4 12 1901.62 1099.87 546.52 o
1913 1 1 -4 12 1901.62 1099.87 546.52 o
1914 3 0 -4 12 106168.00 98308.10 1360.41 o
1914 2 -4 0 -12 106168.00 98308.10 1360.41 o
1914 1 0 4 12 106168.00 98308.10 1360.41 o
1915 3 0 4 12 106390.00 105920.00 1166.71 o
1915 2 4 0 -12 106390.00 105920.00 1166.71 o
1915 1 0 -4 12 106390.00 105920.00 1166.71 o
1916 3 -1 -4 12 1904.89 1273.95 839.05 <
1916 1 1 4 12 1904.89 1273.95 839.05 <
1917 3 1 4 12 1901.61 1147.35 854.91 <
1917 1 -1 -4 12 1901.61 1147.35 854.91 <
1918 3 -2 -4 12 3153.84 3386.66 1075.94 o
1918 2 -4 -2 -12 3153.84 3386.66 1075.94 o
1918 1 2 4 12 3153.84 3386.66 1075.94 o
1919 3 2 4 12 3074.71 2832.77 1044.66 o
1919 2 4 2 -12 3074.71 2832.77 1044.66 o
1919 1 -2 -4 12 3074.71 2832.77 1044.66 o
1920 3 -3 -4 12 2568.49 2642.86 743.73 o
1920 1 3 4 12 2568.49 2642.86 743.73 o
1921 3 3 4 12 2557.86 2160.18 823.22 o
1921 1 -3 -4 12 2557.86 2160.18 823.22 o
1922 3 -4 -4 12 33017.80 32948.70 792.04 o
1922 2 -4 -4 -12 33017.80 32948.70 792.04 o
1922 1 4 4 12 33017.80 32948.70 792.04 o
1923 3 4 4 12 32869.80 39445.10 886.60 o
1923 2 4 4 -12 32869.80 39445.10 886.60 o
1923 1 -4 -4 12 32869.80 39445.10 886.60 o
1924 3 -5 -4 12 736.63 79.13 546.08 <
1924 1 5 4 12 736.63 79.13 546.08 <
1925 3 5 4 12 742.99 276.95 791.34 <
1925 1 -5 -4 12 742.99 276.95 791.34 <
1926 3 -6 -4 12 115.85 474.77 538.00 <
1926 2 -4 -6 -12 115.85 474.77 538.00 <
1926 1 6 4 12 115.85 474.77 538.00 <
1927 3 6 4 12 106.37 269.03 712.14 <
1927 2 4 6 -12 106.37 269.03 712.14 <
1927 1 -6 -4 12 106.37 269.03 712.14 <
1928 3 -7 -4 12 402.18 -506.42 569.63 <
1928 1 7 4 12 402.18 -506.42 569.63 <
1929 3 7 4 12 395.12 815.01 830.75 <
1929 1 -7 -4 12 395.12 815.01 830.75 <
1930 3 -8 -4 12 2408.36 1796.20 522.87 o
1930 2 -4 -8 -12 2408.36 1796.20 522.87 o
1930 1 8 4 12 2408.36 1796.20 522.87 o
1931 3 8 4 12 2413.50 2255.14 878.43 o
1931 2 4 8 -12 2413.50 2255.14 878.43 o
1931 1 -8 -4 12 2413.50 2255.14 878.43 o
1932 3 -9 -4 12 125.31 838.75 506.19 <
1932 1 9 4 12 125.31 838.75 506.19 <
1933 3 8 -6 12 19.87 1107.79 806.83 <
1933 2 -6 8 -12 19.87 1107.79 806.83 <
1933 1 -8 6 12 19.87 1107.79 806.83 <
1934 3 -8 6 12 20.41 577.63 490.47 <
1934 2 6 -8 -12 20.41 577.63 490.47 <
1934 1 8 -6 12 20.41 577.63 490.47 <
1935 3 7 -6 12 314.30 957.44 783.20 <
1935 1 -7 6 12 314.30 957.44 783.20 <
1936 3 -7 6 12 316.73 -110.78 593.46 <
1936 1 7 -6 12 316.73 -110.78 593.46 <
1937 3 6 -6 12 4165.27 3798.12 554.59 o
1937 2 -6 6 -12 4165.27 3798.12 554.59 o
1937 1 -6 6 12 4165.27 3798.12 554.59 o
1938 3 -6 6 12 4157.83 4454.88 569.11 o
1938 2 6 -6 -12 4157.83 4454.88 569.11 o
1938 1 6 -6 12 4157.83 4454.88 569.11 o
1939 3 5 -6 12 345.99 743.80 553.78 <
1939 1 -5 6 12 345.99 743.80 553.78 <
1940 3 -5 6 12 339.93 -94.95 514.34 <
1940 1 5 -6 12 339.93 -94.95 514.34 <
1941 3 4 -6 12 142.00 482.68 593.40 <
1941 2 -6 4 -12 142.00 482.68 593.40 <
1941 1 -4 6 12 142.00 482.68 593.40 <
1942 3 -4 6 12 151.53 664.67 585.43 <
1942 2 6 -4 -12 151.53 664.67 585.43 <
1942 1 4 -6 12 151.53 664.67 585.43 <
1943 3 3 -6 12 879.44 838.75 601.39 <
1943 1 -3 6 12 879.44 838.75 601.39 <
1944 3 -3 6 12 885.46 712.15 617.25 <
1944 1 3 -6 12 885.46 712.15 617.25 <
1945 3 2 -6 12 16380.40 15026.30 743.44 o
1945 2 -6 2 -12 16380.40 15026.30 743.44 o
1945 1 -2 6 12 16380.40 15026.30 743.44 o
1946 3 -2 6 12 16401.10 16339.80 672.98 o
1946 2 6 -2 -12 16401.10 16339.80 672.98 o
1946 1 2 -6 12 16401.10 16339.80 672.98 o
1947 3 1 -6 12 839.52 387.73 625.21 <
1947 1 -1 6 12 839.52 387.73 625.21 <
1948 3 -1 6 12 838.37 356.07 617.30 <
1948 1 1 -6 12 838.37 356.07 617.30 <
1949 3 0 -6 12 268.43 395.64 625.09 <
1949 2 -6 0 -12 268.43 395.64 625.09 <
1949 1 0 6 12 268.43 395.64 625.09 <
1950 3 0 6 12 265.44 -269.03 633.00 <
1950 2 6 0 -12 265.44 -269.03 633.00 <
1950 1 0 -6 12 265.44 -269.03 633.00 <
1951 3 -1 -6 12 839.53 680.50 672.63 <
1951 1 1 6 12 839.53 680.50 672.63 <
1952 3 1 6 12 838.36 530.16 720.13 <
1952 1 -1 -6 12 838.36 530.16 720.13 <
1953 3 -2 -6 12 16392.60 15738.50 842.06 o
1953 2 -6 -2 -12 16392.60 15738.50 842.06 o
1953 1 2 6 12 16392.60 15738.50 842.06 o
1954 3 2 6 12 16389.00 16608.90 790.05 o
1954 2 6 2 -12 16389.00 16608.90 790.05 o
1954 1 -2 -6 12 16389.00 16608.90 790.05 o
1955 3 -3 -6 12 879.44 300.68 767.64 <
1955 1 3 6 12 879.44 300.68 767.64 <
1956 3 3 6 12 885.46 1273.95 719.90 <
1956 1 -3 -6 12 885.46 1273.95 719.90 <
1957 3 -4 -6 12 153.48 680.50 735.79 <
1957 2 -6 -4 -12 153.48 680.50 735.79 <
1957 1 4 6 12 153.48 680.50 735.79 <
1958 3 4 6 12 140.05 775.45 727.84 <
1958 2 6 4 -12 140.05 775.45 727.84 <
1958 1 -4 -6 12 140.05 775.45 727.84 <
1959 3 -5 -6 12 345.99 -39.56 577.65 <
1959 1 5 6 12 345.99 -39.56 577.65 <
1960 3 5 6 12 339.93 31.65 791.29 <
1960 1 -5 -6 12 339.93 31.65 791.29 <
1961 3 -6 -6 12 4152.61 4399.49 656.33 o
1961 2 -6 -6 -12 4152.61 4399.49 656.33 o
1961 1 6 6 12 4152.61 4399.49 656.33 o
1962 3 6 6 12 4170.48 5008.77 805.79 o
1962 2 6 6 -12 4170.48 5008.77 805.79 o
1962 1 -6 -6 12 4170.48 5008.77 805.79 o
1963 3 -7 -6 12 314.30 71.21 601.39 <
1963 1 7 6 12 314.30 71.21 601.39 <
1964 3 7 6 12 316.73 2611.21 861.18 o
1964 1 -7 -6 12 316.73 2611.21 861.18 o
1965 3 -8 -6 12 21.44 664.67 624.98 <
1965 2 -6 -8 -12 21.44 664.67 624.98 <
1965 1 8 6 12 21.44 664.67 624.98 <
1966 3 8 6 12 18.84 71.21 838.75 <
1966 2 6 8 -12 18.84 71.21 838.75 <
1966 1 -8 -6 12 18.84 71.21 838.75 <
1967 3 6 -8 12 21.68 -538.07 632.94 <
1967 2 -8 6 -12 21.68 -538.07 632.94 <
1967 1 -6 8 12 21.68 -538.07 632.94 <
1968 3 -6 8 12 23.52 1685.42 584.69 o
1968 2 8 -6 -12 23.52 1685.42 584.69 o
1968 1 6 -8 12 23.52 1685.42 584.69 o
1969 3 5 -8 12 242.54 1258.13 600.96 o
1969 1 -5 8 12 242.54 1258.13 600.96 o
1970 3 -5 8 12 244.55 213.64 561.81 <
1970 1 5 -8 12 244.55 213.64 561.81 <
1971 3 4 -8 12 2552.80 1986.10 641.45 o
1971 2 -8 4 -12 2552.80 1986.10 641.45 o
1971 1 -4 8 12 2552.80 1986.10 641.45 o
1972 3 -4 8 12 2548.98 2611.21 561.73 o
1972 2 8 -4 -12 2548.98 2611.21 561.73 o
1972 1 4 -8 12 2548.98 2611.21 561.73 o
1973 3 3 -8 12 137.52 -102.87 640.93 <
1973 1 -3 8 12 137.52 -102.87 640.93 <
1974 3 -3 8 12 135.33 -221.56 585.53 <
1974 1 3 -8 12 135.33 -221.56 585.53 <
1975 3 2 -8 12 205.34 63.30 601.38 <
1975 2 -8 2 -12 205.34 63.30 601.38 <
1975 1 -2 8 12 205.34 63.30 601.38 <
1976 3 -2 8 12 213.59 -411.46 609.23 <
1976 2 8 -2 -12 213.59 -411.46 609.23 <
1976 1 2 -8 12 213.59 -411.46 609.23 <
1977 3 1 -8 12 311.48 735.89 688.31 <
1977 1 -1 8 12 311.48 735.89 688.31 <
1978 3 -1 8 12 312.40 245.29 593.47 <
1978 1 1 -8 12 312.40 245.29 593.47 <
1979 3 0 -8 12 3117.99 2587.47 736.42 o
1979 2 -8 0 -12 3117.99 2587.47 736.42 o
1979 1 0 8 12 3117.99 2587.47 736.42 o
1980 3 0 8 12 3119.68 2476.69 673.27 o
1980 2 8 0 -12 3119.68 2476.69 673.27 o
1980 1 0 -8 12 3119.68 2476.69 673.27 o
1981 3 -1 -8 12 311.48 -458.94 672.52 <
1981 1 1 8 12 311.48 -458.94 672.52 <
1982 3 1 8 12 312.40 387.73 672.57 <
1982 1 -1 -8 12 312.40 387.73 672.57 <
1983 3 -2 -8 12 214.07 601.37 775.39 <
1983 2 -8 -2 -12 214.07 601.37 775.39 <
1983 1 2 8 12 214.07 601.37 775.39 <
1984 3 2 8 12 204.86 1060.31 688.15 <
1984 2 8 2 -12 204.86 1060.31 688.15 <
1984 1 -2 -8 12 204.86 1060.31 688.15 <
1985 3 -3 -8 12 137.52 569.72 759.56 <
1985 1 3 8 12 137.52 569.72 759.56 <
1986 3 3 8 12 135.33 1258.13 688.03 <
1986 1 -3 -8 12 135.33 1258.13 688.03 <
1987 3 -4 -8 12 2547.72 1653.77 783.96 o
1987 2 -8 -4 -12 2547.72 1653.77 783.96 o
1987 1 4 8 12 2547.72 1653.77 783.96 o
1988 3 4 8 12 2554.05 2927.72 735.51 o
1988 2 8 4 -12 2554.05 2927.72 735.51 o
1988 1 -4 -8 12 2554.05 2927.72 735.51 o
1989 3 -5 -8 12 242.54 822.93 799.07 <
1989 1 5 8 12 242.54 822.93 799.07 <
1990 3 5 8 12 244.55 735.89 767.44 <
1990 1 -5 -8 12 244.55 735.89 767.44 <
1991 3 -6 -8 12 24.17 965.36 696.09 <
1991 2 -8 -6 -12 24.17 965.36 696.09 <
1991 1 6 8 12 24.17 965.36 696.09 <
1992 3 6 8 12 21.03 87.04 909.97 <
1992 2 8 6 -12 21.03 87.04 909.97 <
1992 1 -6 -8 12 21.03 87.04 909.97 <
1993 3 2 -10 12 625.52 933.71 688.31 <
1993 2 -10 2 -12 625.52 933.71 688.31 <
1993 1 -2 10 12 625.52 933.71 688.31 <
1994 3 -2 10 12 624.52 1155.26 648.63 <
1994 2 10 -2 -12 624.52 1155.26 648.63 <
1994 1 2 -10 12 624.52 1155.26 648.63 <
1995 3 1 -10 12 48.62 221.56 712.14 <
1995 1 -1 10 12 48.62 221.56 712.14 <
1996 3 -1 10 12 48.40 743.80 656.61 <
1996 1 1 -10 12 48.40 743.80 656.61 <
1997 3 0 -10 12 41.67 482.68 735.83 <
1997 2 -10 0 -12 41.67 482.68 735.83 <
1997 1 0 10 12 41.67 482.68 735.83 <
1998 3 0 10 12 41.56 838.75 648.66 <
1998 2 10 0 -12 41.56 838.75 648.66 <
1998 1 0 -10 12 41.56 838.75 648.66 <
1999 3 -1 -10 12 48.62 1210.65 759.29 <
1999 1 1 10 12 48.62 1210.65 759.29 <
2000 3 1 10 12 48.40 727.97 696.19 <
2000 1 -1 -10 12 48.40 727.97 696.19 <
2001 3 -2 -10 12 624.56 917.88 767.45 <
2001 2 -10 -2 -12 624.56 917.88 767.45 <
2001 1 2 10 12 624.56 917.88 767.45 <
2002 3 2 10 12 625.48 1345.17 703.93 <
2002 2 10 2 -12 625.48 1345.17 703.93 <
2002 1 -2 -10 12 625.48 1345.17 703.93 <
2003 3 -10 1 13 7.85 989.09 434.80 o
2003 1 10 -1 13 7.85 989.09 434.80 o
2004 3 -9 1 13 78.59 751.71 506.23 <
2004 2 1 -9 -13 78.59 751.71 506.23 <
2004 1 9 -1 13 78.59 751.71 506.23 <
2005 3 8 -1 13 178.48 443.11 735.85 <
2005 1 -8 1 13 178.48 443.11 735.85 <
2006 3 -8 1 13 177.61 577.63 482.58 <
2006 1 8 -1 13 177.61 577.63 482.58 <
2007 3 7 -1 13 487.76 530.16 727.97 <
2007 2 -1 7 -13 487.76 530.16 727.97 <
2007 1 -7 1 13 487.76 530.16 727.97 <
2008 3 -7 1 13 489.76 625.11 482.64 <
2008 2 1 -7 -13 489.76 625.11 482.64 <
2008 1 7 -1 13 489.76 625.11 482.64 <
2009 3 6 -1 13 2077.88 720.06 752.28 <
2009 1 -6 1 13 2077.88 720.06 752.28 <
2010 3 -6 1 13 2075.05 2136.44 474.69 o
2010 1 6 -1 13 2075.05 2136.44 474.69 o
2011 3 5 -1 13 1416.94 1163.17 925.88 <
2011 2 -1 5 -13 1416.94 1163.17 925.88 <
2011 1 -5 1 13 1416.94 1163.17 925.88 <
2012 3 -5 1 13 1422.36 1416.38 458.95 o
2012 2 1 -5 -13 1422.36 1416.38 458.95 o
2012 1 5 -1 13 1422.36 1416.38 458.95 o
2013 3 4 -1 13 10061.40 9044.28 826.01 o
2013 1 -4 1 13 10061.40 9044.28 826.01 o
2014 3 -4 1 13 10031.30 8806.90 504.50 o
2014 1 4 -1 13 10031.30 8806.90 504.50 o
2015 3 3 -1 13 2838.44 1163.17 918.72 <
2015 2 -1 3 -13 2838.44 1163.17 918.72 <
2015 1 -3 1 13 2838.44 1163.17 918.72 <
2016 3 -3 1 13 2877.23 1843.67 681.38 o
2016 2 1 -3 -13 2877.23 1843.67 681.38 o
2016 1 3 -1 13 2877.23 1843.67 681.38 o
2017 3 2 -1 13 7584.21 8245.09 805.35 o
2017 1 -2 1 13 7584.21 8245.09 805.35 o
2018 3 -2 1 13 7530.13 7786.15 814.37 o
2018 1 2 -1 13 7530.13 7786.15 814.37 o
2019 3 1 -1 13 2525.03 767.54 799.98 <
2019 2 -1 1 -13 2525.03 767.54 799.98 <
2019 1 -1 1 13 2525.03 767.54 799.98 <
2020 3 -1 1 13 2563.60 696.32 728.88 <
2020 2 1 -1 -13 2563.60 696.32 728.88 <
2020 1 1 -1 13 2563.60 696.32 728.88 <
2021 3 -1 -1 13 2590.63 1044.48 902.77 <
2021 2 -1 -1 -13 2590.63 1044.48 902.77 <
2021 1 1 1 13 2590.63 1044.48 902.77 <
2022 3 1 1 13 2498.01 640.93 879.03 <
2022 2 1 1 -13 2498.01 640.93 879.03 <
2022 1 -1 -1 13 2498.01 640.93 879.03 <
2023 3 -2 -1 13 7584.21 7485.47 973.47 o
2023 1 2 1 13 7584.21 7485.47 973.47 o
2024 3 2 1 13 7530.11 7382.60 854.92 o
2024 1 -2 -1 13 7530.11 7382.60 854.92 o
2025 3 -3 -1 13 2881.08 2231.40 728.56 o
2025 2 -1 -3 -13 2881.08 2231.40 728.56 o
2025 1 3 1 13 2881.08 2231.40 728.56 o
2026 3 3 1 13 2834.57 2358.00 673.06 o
2026 2 1 3 -13 2834.57 2358.00 673.06 o
2026 1 -3 -1 13 2834.57 2358.00 673.06 o
2027 3 -4 -1 13 10061.40 8316.31 686.55 o
2027 1 4 1 13 10061.40 8316.31 686.55 o
2028 3 4 1 13 10031.30 8870.20 668.97 o
2028 1 -4 -1 13 10031.30 8870.20 668.97 o
2029 3 -5 -1 13 1422.79 909.97 641.16 <
2029 2 -1 -5 -13 1422.79 909.97 641.16 <
2029 1 5 1 13 1422.79 909.97 641.16 <
2030 3 5 1 13 1416.51 1076.13 546.18 <
2030 2 1 5 -13 1416.51 1076.13 546.18 <
2030 1 -5 -1 13 1416.51 1076.13 546.18 <
2031 3 -6 -1 13 2077.88 2152.27 632.95 o
2031 1 6 1 13 2077.88 2152.27 632.95 o
2032 3 6 1 13 2075.04 1914.89 775.56 o
2032 1 -6 -1 13 2075.04 1914.89 775.56 o
2033 3 -7 -1 13 489.08 118.69 443.17 <
2033 2 -1 -7 -13 489.08 118.69 443.17 <
2033 1 7 1 13 489.08 118.69 443.17 <
2034 3 -8 -1 13 178.47 403.55 443.07 <
2034 1 8 1 13 178.47 403.55 443.07 <
2035 3 -9 -1 13 78.37 284.86 419.35 <
2035 2 -1 -9 -13 78.37 284.86 419.35 <
2035 1 9 1 13 78.37 284.86 419.35 <
2036 3 -10 -1 13 7.52 933.71 434.85 o
2036 1 10 1 13 7.52 933.71 434.85 o
2037 3 9 -3 13 74.69 672.58 743.70 <
2037 2 -3 9 -13 74.69 672.58 743.70 <
2037 1 -9 3 13 74.69 672.58 743.70 <
2038 3 -9 3 13 75.02 -79.13 482.68 <
2038 2 3 -9 -13 75.02 -79.13 482.68 <
2038 1 9 -3 13 75.02 -79.13 482.68 <
2039 3 8 -3 13 92.78 1669.59 751.07 o
2039 1 -8 3 13 92.78 1669.59 751.07 o
2040 3 -8 3 13 92.48 807.10 482.45 <
2040 1 8 -3 13 92.48 807.10 482.45 <
2041 3 7 -3 13 222.46 522.24 735.84 <
2041 2 -3 7 -13 222.46 522.24 735.84 <
2041 1 -7 3 13 222.46 522.24 735.84 <
2042 3 -7 3 13 223.06 1107.79 466.44 o
2042 2 3 -7 -13 223.06 1107.79 466.44 o
2042 1 7 -3 13 223.06 1107.79 466.44 o
2043 3 6 -3 13 1091.89 490.59 767.68 <
2043 1 -6 3 13 1091.89 490.59 767.68 <
2044 3 -6 3 13 1085.43 379.81 490.83 <
2044 1 6 -3 13 1085.43 379.81 490.83 <
2045 3 5 -3 13 926.81 1036.57 822.89 <
2045 2 -3 5 -13 926.81 1036.57 822.89 <
2045 1 -5 3 13 926.81 1036.57 822.89 <
2046 3 -5 3 13 921.38 767.54 459.01 <
2046 2 3 -5 -13 921.38 767.54 459.01 <
2046 1 5 -3 13 921.38 767.54 459.01 <
2047 3 4 -3 13 2031.21 1748.72 712.34 o
2047 1 -4 3 13 2031.21 1748.72 712.34 o
2048 3 -4 3 13 2015.27 2025.67 451.02 o
2048 1 4 -3 13 2015.27 2025.67 451.02 o
2049 3 3 -3 13 1565.48 617.20 752.03 <
2049 2 -3 3 -13 1565.48 617.20 752.03 <
2049 1 -3 3 13 1565.48 617.20 752.03 <
2050 3 -3 3 13 1559.46 727.97 514.76 <
2050 2 3 -3 -13 1559.46 727.97 514.76 <
2050 1 3 -3 13 1559.46 727.97 514.76 <
2051 3 2 -3 13 1758.58 783.36 807.46 <
2051 1 -2 3 13 1758.58 783.36 807.46 <
2052 3 -2 3 13 1716.46 1622.11 530.23 o
2052 1 2 -3 13 1716.46 1622.11 530.23 o
2053 3 1 -3 13 2655.14 3141.36 862.04 o
2053 2 -3 1 -13 2655.14 3141.36 862.04 o
2053 1 -1 3 13 2655.14 3141.36 862.04 o
2054 3 -1 3 13 2646.97 2160.18 601.87 o
2054 2 3 -1 -13 2646.97 2160.18 601.87 o
2054 1 1 -3 13 2646.97 2160.18 601.87 o
2055 3 -1 -3 13 2664.53 1653.77 871.02 <
2055 2 -3 -1 -13 2664.53 1653.77 871.02 <
2055 1 1 3 13 2664.53 1653.77 871.02 <
2056 3 1 3 13 2637.57 2943.54 893.88 o
2056 2 3 1 -13 2637.57 2943.54 893.88 o
2056 1 -1 -3 13 2637.57 2943.54 893.88 o
2057 3 -2 -3 13 1758.58 1194.83 831.09 <
2057 1 2 3 13 1758.58 1194.83 831.09 <
2058 3 2 3 13 1716.47 1717.07 838.75 o
2058 1 -2 -3 13 1716.47 1717.07 838.75 o
2059 3 -3 -3 13 1555.28 1186.91 799.35 <
2059 2 -3 -3 -13 1555.28 1186.91 799.35 <
2059 1 3 3 13 1555.28 1186.91 799.35 <
2060 3 3 3 13 1569.69 625.11 728.30 <
2060 2 3 3 -13 1569.69 625.11 728.30 <
2060 1 -3 -3 13 1569.69 625.11 728.30 <
2061 3 -4 -3 13 2031.20 2001.93 617.22 o
2061 1 4 3 13 2031.20 2001.93 617.22 o
2062 3 4 3 13 2015.27 648.85 736.43 <
2062 1 -4 -3 13 2015.27 648.85 736.43 <
2063 3 -5 -3 13 919.61 1186.91 553.75 o
2063 2 -3 -5 -13 919.61 1186.91 553.75 o
2063 1 5 3 13 919.61 1186.91 553.75 o
2064 3 5 3 13 928.58 1297.69 759.47 <
2064 2 3 5 -13 928.58 1297.69 759.47 <
2064 1 -5 -3 13 928.58 1297.69 759.47 <
2065 3 -6 -3 13 1091.90 735.89 506.58 <
2065 1 6 3 13 1091.90 735.89 506.58 <
2066 3 6 3 13 1085.43 1724.98 814.70 o
2066 1 -6 -3 13 1085.43 1724.98 814.70 o
2067 3 -7 -3 13 222.36 -371.90 538.02 <
2067 2 -3 -7 -13 222.36 -371.90 538.02 <
2067 1 7 3 13 222.36 -371.90 538.02 <
2068 3 7 3 13 223.16 110.78 799.19 <
2068 2 3 7 -13 223.16 110.78 799.19 <
2068 1 -7 -3 13 223.16 110.78 799.19 <
2069 3 -8 -3 13 92.78 71.21 522.24 <
2069 1 8 3 13 92.78 71.21 522.24 <
2070 3 -9 -3 13 74.61 79.13 458.94 <
2070 2 -3 -9 -13 74.61 79.13 458.94 <
2070 1 9 3 13 74.61 79.13 458.94 <
2071 3 9 -5 13 50.53 767.54 799.06 <
2071 2 -5 9 -13 50.53 767.54 799.06 <
2071 1 -9 5 13 50.53 767.54 799.06 <
2072 3 -9 5 13 50.78 134.52 506.41 <
2072 2 5 -9 -13 50.78 134.52 506.41 <
2072 1 9 -5 13 50.78 134.52 506.41 <
2073 3 8 -5 13 223.56 -997.01 751.46 <
2073 1 -8 5 13 223.56 -997.01 751.46 <
2074 3 -8 5 13 221.63 933.71 482.40 <
2074 1 8 -5 13 221.63 933.71 482.40 <
2075 3 7 -5 13 180.64 -387.73 870.37 <
2075 2 -5 7 -13 180.64 -387.73 870.37 <
2075 1 -7 5 13 180.64 -387.73 870.37 <
2076 3 -7 5 13 180.40 712.15 506.27 <
2076 2 5 -7 -13 180.40 712.15 506.27 <
2076 1 7 -5 13 180.40 712.15 506.27 <
2077 3 6 -5 13 347.36 -957.44 767.30 <
2077 1 -6 5 13 347.36 -957.44 767.30 <
2078 3 -6 5 13 351.02 458.94 561.78 <
2078 1 6 -5 13 351.02 458.94 561.78 <
2079 3 5 -5 13 268.73 7.91 577.64 <
2079 2 -5 5 -13 268.73 7.91 577.64 <
2079 1 -5 5 13 268.73 7.91 577.64 <
2080 3 -5 5 13 267.91 1487.60 577.02 o
2080 2 5 -5 -13 267.91 1487.60 577.02 o
2080 1 5 -5 13 267.91 1487.60 577.02 o
2081 3 4 -5 13 695.07 -237.38 585.58 <
2081 1 -4 5 13 695.07 -237.38 585.58 <
2082 3 -4 5 13 687.33 458.94 609.34 <
2082 1 4 -5 13 687.33 458.94 609.34 <
2083 3 3 -5 13 944.24 1297.69 569.52 o
2083 2 -5 3 -13 944.24 1297.69 569.52 o
2083 1 -3 5 13 944.24 1297.69 569.52 o
2084 3 -3 5 13 942.95 743.80 553.97 <
2084 2 5 -3 -13 942.95 743.80 553.97 <
2084 1 3 -5 13 942.95 743.80 553.97 <
2085 3 2 -5 13 221.30 118.69 569.73 <
2085 1 -2 5 13 221.30 118.69 569.73 <
2086 3 -2 5 13 213.81 379.81 569.69 <
2086 1 2 -5 13 213.81 379.81 569.69 <
2087 3 1 -5 13 1555.24 1614.20 688.37 o
2087 2 -5 1 -13 1555.24 1614.20 688.37 o
2087 1 -1 5 13 1555.24 1614.20 688.37 o
2088 3 -1 5 13 1553.86 1139.44 633.24 <
2088 2 5 -1 -13 1553.86 1139.44 633.24 <
2088 1 1 -5 13 1553.86 1139.44 633.24 <
2089 3 -1 -5 13 1556.26 727.97 744.10 <
2089 2 -5 -1 -13 1556.26 727.97 744.10 <
2089 1 1 5 13 1556.26 727.97 744.10 <
2090 3 1 5 13 1552.83 1194.83 743.97 <
2090 2 5 1 -13 1552.83 1194.83 743.97 <
2090 1 -1 -5 13 1552.83 1194.83 743.97 <
2091 3 -2 -5 13 221.30 482.68 814.98 <
2091 1 2 5 13 221.30 482.68 814.98 <
2092 3 2 5 13 213.80 704.23 783.27 <
2092 1 -2 -5 13 213.80 704.23 783.27 <
2093 3 -3 -5 13 939.98 1305.60 830.70 <
2093 2 -5 -3 -13 939.98 1305.60 830.70 <
2093 1 3 5 13 939.98 1305.60 830.70 <
2094 3 3 5 13 947.22 886.23 815.03 <
2094 2 5 3 -13 947.22 886.23 815.03 <
2094 1 -3 -5 13 947.22 886.23 815.03 <
2095 3 -4 -5 13 695.07 332.34 696.39 <
2095 1 4 5 13 695.07 332.34 696.39 <
2096 3 4 5 13 687.33 522.24 783.40 <
2096 1 -4 -5 13 687.33 522.24 783.40 <
2097 3 -5 -5 13 267.34 39.56 625.12 <
2097 2 -5 -5 -13 267.34 39.56 625.12 <
2097 1 5 5 13 267.34 39.56 625.12 <
2098 3 5 5 13 269.31 79.13 727.98 <
2098 2 5 5 -13 269.31 79.13 727.98 <
2098 1 -5 -5 13 269.31 79.13 727.98 <
2099 3 -6 -5 13 347.36 514.33 561.77 <
2099 1 6 5 13 347.36 514.33 561.77 <
2100 3 6 5 13 351.02 522.24 743.77 <
2100 1 -6 -5 13 351.02 522.24 743.77 <
2101 3 -7 -5 13 180.09 395.64 569.69 <
2101 2 -5 -7 -13 180.09 395.64 569.69 <
2101 1 7 5 13 180.09 395.64 569.69 <
2102 3 7 5 13 180.94 727.97 870.31 <
2102 2 5 7 -13 180.94 727.97 870.31 <
2102 1 -7 -5 13 180.94 727.97 870.31 <
2103 3 -8 -5 13 223.56 886.23 585.34 <
2103 1 8 5 13 223.56 886.23 585.34 <
2104 3 8 5 13 221.63 324.42 925.78 <
2104 1 -8 -5 13 221.63 324.42 925.78 <
2105 3 -9 -5 13 50.77 1036.57 601.06 <
2105 2 -5 -9 -13 50.77 1036.57 601.06 <
2105 1 9 5 13 50.77 1036.57 601.06 <
2106 3 9 5 13 50.54 47.48 862.49 <
2106 2 5 9 -13 50.54 47.48 862.49 <
2106 1 -9 -5 13 50.54 47.48 862.49 <
2107 3 7 -7 13 82.95 261.12 838.74 <
2107 2 -7 7 -13 82.95 261.12 838.74 <
2107 1 -7 7 13 82.95 261.12 838.74 <
2108 3 -7 7 13 83.20 498.50 593.39 <
2108 2 7 -7 -13 83.20 498.50 593.39 <
2108 1 7 -7 13 83.20 498.50 593.39 <
2109 3 6 -7 13 261.56 -443.11 609.22 <
2109 1 -6 7 13 261.56 -443.11 609.22 <
2110 3 -6 7 13 259.80 941.62 593.24 <
2110 1 6 -7 13 259.80 941.62 593.24 <
2111 3 5 -7 13 180.68 284.86 553.88 <
2111 2 -7 5 -13 180.68 284.86 553.88 <
2111 1 -5 7 13 180.68 284.86 553.88 <
2112 3 -5 7 13 180.17 411.46 538.03 <
2112 2 7 -5 -13 180.17 411.46 538.03 <
2112 1 5 -7 13 180.17 411.46 538.03 <
2113 3 4 -7 13 196.46 261.12 553.89 <
2113 1 -4 7 13 196.46 261.12 553.89 <
2114 3 -4 7 13 198.12 474.77 530.10 <
2114 1 4 -7 13 198.12 474.77 530.10 <
2115 3 3 -7 13 212.40 71.21 538.08 <
2115 2 -7 3 -13 212.40 71.21 538.08 <
2115 1 -3 7 13 212.40 71.21 538.08 <
2116 3 -3 7 13 210.73 -110.78 530.15 <
2116 2 7 -3 -13 210.73 -110.78 530.15 <
2116 1 3 -7 13 210.73 -110.78 530.15 <
2117 3 2 -7 13 62.49 577.63 553.79 <
2117 1 -2 7 13 62.49 577.63 553.79 <
2118 3 -2 7 13 61.46 870.40 521.99 <
2118 1 2 -7 13 61.46 870.40 521.99 <
2119 3 1 -7 13 572.90 997.01 648.70 <
2119 2 -7 1 -13 572.90 997.01 648.70 <
2119 1 -1 7 13 572.90 997.01 648.70 <
2120 3 -1 7 13 570.71 854.58 609.19 <
2120 2 7 -1 -13 570.71 854.58 609.19 <
2120 1 1 -7 13 570.71 854.58 609.19 <
2121 3 -1 -7 13 571.26 997.01 712.01 <
2121 2 -7 -1 -13 571.26 997.01 712.01 <
2121 1 1 7 13 571.26 997.01 712.01 <
2122 3 1 7 13 572.36 348.16 656.80 <
2122 2 7 1 -13 572.36 348.16 656.80 <
2122 1 -1 -7 13 572.36 348.16 656.80 <
2123 3 -2 -7 13 62.49 435.20 735.84 <
2123 1 2 7 13 62.49 435.20 735.84 <
2124 3 2 7 13 61.46 482.68 696.27 <
2124 1 -2 -7 13 61.46 482.68 696.27 <
2125 3 -3 -7 13 210.69 269.03 759.62 <
2125 2 -7 -3 -13 210.69 269.03 759.62 <
2125 1 3 7 13 210.69 269.03 759.62 <
2126 3 3 7 13 212.43 688.41 704.14 <
2126 2 7 3 -13 212.43 688.41 704.14 <
2126 1 -3 -7 13 212.43 688.41 704.14 <
2127 3 -4 -7 13 196.46 31.65 759.63 <
2127 1 4 7 13 196.46 31.65 759.63 <
2128 3 4 7 13 198.12 316.51 727.96 <
2128 1 -4 -7 13 198.12 316.51 727.96 <
2129 3 -5 -7 13 179.94 443.11 640.89 <
2129 2 -7 -5 -13 179.94 443.11 640.89 <
2129 1 5 7 13 179.94 443.11 640.89 <
2130 3 5 7 13 180.90 166.17 807.10 <
2130 2 7 5 -13 180.90 166.17 807.10 <
2130 1 -5 -7 13 180.90 166.17 807.10 <
2131 3 -6 -7 13 261.56 245.29 680.50 <
2131 1 6 7 13 261.56 245.29 680.50 <
2132 3 6 7 13 259.80 577.63 902.01 <
2132 1 -6 -7 13 259.80 577.63 902.01 <
2133 3 -7 -7 13 83.37 799.19 656.60 <
2133 2 -7 -7 -13 83.37 799.19 656.60 <
2133 1 7 7 13 83.37 799.19 656.60 <
2134 3 7 7 13 82.77 1661.68 854.02 <
2134 2 7 7 -13 82.77 1661.68 854.02 <
2134 1 -7 -7 13 82.77 1661.68 854.02 <
2135 3 5 -9 13 49.97 1020.75 696.06 <
2135 2 -9 5 -13 49.97 1020.75 696.06 <
2135 1 -5 9 13 49.97 1020.75 696.06 <
2136 3 -5 9 13 49.86 1036.57 585.23 <
2136 2 9 -5 -13 49.86 1036.57 585.23 <
2136 1 5 -9 13 49.86 1036.57 585.23 <
2137 3 4 -9 13 71.93 7.91 640.93 <
2137 1 -4 9 13 71.93 7.91 640.93 <
2138 3 -4 9 13 71.37 751.71 569.55 <
2138 1 4 -9 13 71.37 751.71 569.55 <
2139 3 3 -9 13 79.21 854.58 664.49 <
2139 2 -9 3 -13 79.21 854.58 664.49 <
2139 1 -3 9 13 79.21 854.58 664.49 <
2140 3 -3 9 13 78.23 625.11 569.60 <
2140 2 9 -3 -13 78.23 625.11 569.60 <
2140 1 3 -9 13 78.23 625.11 569.60 <
2141 3 2 -9 13 14.44 174.08 648.84 <
2141 1 -2 9 13 14.44 174.08 648.84 <
2142 3 -2 9 13 14.50 134.52 625.10 <
2142 1 2 -9 13 14.50 134.52 625.10 <
2143 3 1 -9 13 83.92 -7.91 704.24 <
2143 2 -9 1 -13 83.92 -7.91 704.24 <
2143 1 -1 9 13 83.92 -7.91 704.24 <
2144 3 -1 9 13 83.24 807.10 648.68 <
2144 2 9 -1 -13 83.24 807.10 648.68 <
2144 1 1 -9 13 83.24 807.10 648.68 <
2145 3 -1 -9 13 83.38 110.78 712.15 <
2145 2 -9 -1 -13 83.38 110.78 712.15 <
2145 1 1 9 13 83.38 110.78 712.15 <
2146 3 1 9 13 83.78 -7.91 688.41 <
2146 2 9 1 -13 83.78 -7.91 688.41 <
2146 1 -1 -9 13 83.78 -7.91 688.41 <
2147 3 -2 -9 13 14.44 -87.04 807.10 <
2147 1 2 9 13 14.44 -87.04 807.10 <
2148 3 2 9 13 14.50 1036.57 735.63 <
2148 1 -2 -9 13 14.50 1036.57 735.63 <
2149 3 -3 -9 13 78.20 102.87 807.10 <
2149 2 -9 -3 -13 78.20 102.87 807.10 <
2149 1 3 9 13 78.20 102.87 807.10 <
2150 3 3 9 13 79.24 308.60 783.34 <
2150 2 9 3 -13 79.24 308.60 783.34 <
2150 1 -3 -9 13 79.24 308.60 783.34 <
2151 3 -4 -9 13 71.93 506.42 886.18 <
2151 1 4 9 13 71.93 506.42 886.18 <
2152 3 4 9 13 71.37 118.69 822.92 <
2152 1 -4 -9 13 71.37 118.69 822.92 <
2153 3 -5 -9 13 49.96 577.63 878.25 <
2153 2 -9 -5 -13 49.96 577.63 878.25 <
2153 1 5 9 13 49.96 577.63 878.25 <
2154 3 5 9 13 49.87 2278.87 916.88 o
2154 2 9 5 -13 49.87 2278.87 916.88 o
2154 1 -5 -9 13 49.87 2278.87 916.88 o
2155 3 0 0 14 229220.00 254822.00 5061.01 o
2155 2 0 0 -14 229220.00 254822.00 5061.01 o
2155 1 0 0 14 229220.00 254822.00 5061.01 o
2156 3 -1 0 14 12510.50 14393.30 838.46 o
2156 1 1 0 14 12510.50 14393.30 838.46 o
2157 3 1 0 14 12510.50 14788.90 820.52 o
2157 1 -1 0 14 12510.50 14788.90 820.52 o
2158 3 -2 0 14 2585.69 1558.81 815.65 <
2158 2 0 -2 -14 2585.69 1558.81 815.65 <
2158 1 2 0 14 2585.69 1558.81 815.65 <
2159 3 2 0 14 2594.09 1242.30 728.81 <
2159 2 0 2 -14 2594.09 1242.30 728.81 <
2159 1 -2 0 14 2594.09 1242.30 728.81 <
2160 3 -3 0 14 2976.61 2706.16 751.98 o
2160 1 3 0 14 2976.61 2706.16 751.98 o
2161 3 3 0 14 2976.64 2935.63 617.25 o
2161 1 -3 0 14 2976.64 2935.63 617.25 o
2162 3 -4 0 14 56163.30 53767.20 924.73 o
2162 2 0 -4 -14 56163.30 53767.20 924.73 o
2162 1 4 0 14 56163.30 53767.20 924.73 o
2163 3 4 0 14 56147.10 58427.80 787.50 o
2163 2 0 4 -14 56147.10 58427.80 787.50 o
2163 1 -4 0 14 56147.10 58427.80 787.50 o
2164 3 -5 0 14 4433.89 5246.16 647.18 o
2164 1 5 0 14 4433.89 5246.16 647.18 o
2165 3 5 0 14 4433.89 4644.79 798.87 o
2165 1 -5 0 14 4433.89 4644.79 798.87 o
2166 3 -6 0 14 6947.96 8980.98 497.45 o
2166 2 0 -6 -14 6947.96 8980.98 497.45 o
2166 1 6 0 14 6947.96 8980.98 497.45 o
2167 3 6 0 14 7007.24 9281.66 776.73 o
2167 2 0 6 -14 7007.24 9281.66 776.73 o
2167 1 -6 0 14 7007.24 9281.66 776.73 o
2168 3 -7 0 14 312.18 1060.31 466.51 o
2168 1 7 0 14 312.18 1060.31 466.51 o
2169 3 7 0 14 312.18 712.15 830.77 <
2169 1 -7 0 14 312.18 712.15 830.77 <
2170 3 -8 0 14 3261.35 1946.54 484.41 o
2170 2 0 -8 -14 3261.35 1946.54 484.41 o
2170 1 8 0 14 3261.35 1946.54 484.41 o
2171 3 -9 0 14 325.31 751.71 435.04 <
2171 1 9 0 14 325.31 751.71 435.04 <
2172 3 -10 0 14 328.91 1107.79 450.64 o
2172 2 0 -10 -14 328.91 1107.79 450.64 o
2172 1 10 0 14 328.91 1107.79 450.64 o
2173 3 -10 2 14 682.32 1796.20 521.43 o
2173 2 2 -10 -14 682.32 1796.20 521.43 o
2173 1 10 -2 14 682.32 1796.20 521.43 o
2174 3 9 -2 14 76.31 1020.75 767.31 <
2174 1 -9 2 14 76.31 1020.75 767.31 <
2175 3 -9 2 14 78.39 411.46 482.62 <
2175 1 9 -2 14 78.39 411.46 482.62 <
2176 3 8 -2 14 1486.32 822.93 712.41 <
2176 2 -2 8 -14 1486.32 822.93 712.41 <
2176 1 -8 2 14 1486.32 822.93 712.41 <
2177 3 -8 2 14 1468.57 1471.77 474.76 o
2177 2 2 -8 -14 1468.57 1471.77 474.76 o
2177 1 8 -2 14 1468.57 1471.77 474.76 o
2178 3 7 -2 14 1296.91 2278.87 758.95 o
2178 1 -7 2 14 1296.91 2278.87 758.95 o
2179 3 -7 2 14 1292.49 1099.87 474.89 o
2179 1 7 -2 14 1292.49 1099.87 474.89 o
2180 3 6 -2 14 12394.70 9479.48 801.48 o
2180 2 -2 6 -14 12394.70 9479.48 801.48 o
2180 1 -6 2 14 12394.70 9479.48 801.48 o
2181 3 -6 2 14 12444.20 9186.71 539.06 o
2181 2 2 -6 -14 12444.20 9186.71 539.06 o
2181 1 6 -2 14 12444.20 9186.71 539.06 o
2182 3 5 -2 14 1084.76 -174.08 870.50 <
2182 1 -5 2 14 1084.76 -174.08 870.50 <
2183 3 -5 2 14 1088.68 1368.91 442.90 o
2183 1 5 -2 14 1088.68 1368.91 442.90 o
2184 3 4 -2 14 6723.56 6931.57 790.79 o
2184 2 -2 4 -14 6723.56 6931.57 790.79 o
2184 1 -4 2 14 6723.56 6931.57 790.79 o
2185 3 -4 2 14 6667.09 6037.43 492.72 o
2185 2 2 -4 -14 6667.09 6037.43 492.72 o
2185 1 4 -2 14 6667.09 6037.43 492.72 o
2186 3 3 -2 14 7554.36 8727.77 803.86 o
2186 1 -3 2 14 7554.36 8727.77 803.86 o
2187 3 -3 2 14 7564.88 9115.49 523.41 o
2187 1 3 -2 14 7564.88 9115.49 523.41 o
2188 3 2 -2 14 119876.00 124333.00 1368.97 o
2188 2 -2 2 -14 119876.00 124333.00 1368.97 o
2188 1 -2 2 14 119876.00 124333.00 1368.97 o
2189 3 -2 2 14 120071.00 132135.00 411.95 o
2189 2 2 -2 -14 120071.00 132135.00 411.95 o
2189 1 2 -2 14 120071.00 132135.00 411.95 o
2190 3 1 -2 14 5437.11 6021.61 1027.77 o
2190 1 -1 2 14 5437.11 6021.61 1027.77 o
2191 3 -1 2 14 5423.45 6440.98 662.18 o
2191 1 1 -2 14 5423.45 6440.98 662.18 o
2192 3 0 -2 14 2071.46 822.93 981.60 <
2192 2 -2 0 -14 2071.46 822.93 981.60 <
2192 1 0 2 14 2071.46 822.93 981.60 <
2193 3 0 2 14 2074.91 1432.21 744.18 <
2193 2 2 0 -14 2074.91 1432.21 744.18 <
2193 1 0 -2 14 2074.91 1432.21 744.18 <
2194 3 -1 -2 14 5437.09 6164.04 987.93 o
2194 1 1 2 14 5437.09 6164.04 987.93 o
2195 3 1 2 14 5423.47 6013.69 1344.49 o
2195 1 -1 -2 14 5423.47 6013.69 1344.49 o
2196 3 -2 -2 14 120207.00 130181.00 1124.59 o
2196 2 -2 -2 -14 120207.00 130181.00 1124.59 o
2196 1 2 2 14 120207.00 130181.00 1124.59 o
2197 3 2 2 14 119739.00 124072.00 1312.54 o
2197 2 2 2 -14 119739.00 124072.00 1312.54 o
2197 1 -2 -2 14 119739.00 124072.00 1312.54 o
2198 3 -3 -2 14 7554.38 8379.61 733.46 o
2198 1 3 2 14 7554.38 8379.61 733.46 o
2199 3 3 2 14 7564.86 9843.47 911.85 o
2199 1 -3 -2 14 7564.86 9843.47 911.85 o
2200 3 -4 -2 14 6609.36 5863.35 603.39 o
2200 2 -2 -4 -14 6609.36 5863.35 603.39 o
2200 1 4 2 14 6609.36 5863.35 603.39 o
2201 3 4 2 14 6781.25 5578.49 872.60 o
2201 2 2 4 -14 6781.25 5578.49 872.60 o
2201 1 -4 -2 14 6781.25 5578.49 872.60 o
2202 3 -5 -2 14 1084.76 933.71 530.23 <
2202 1 5 2 14 1084.76 933.71 530.23 <
2203 3 5 2 14 1088.67 1487.60 775.26 <
2203 1 -5 -2 14 1088.67 1487.60 775.26 <
2204 3 -6 -2 14 12460.50 9289.57 600.30 o
2204 2 -2 -6 -14 12460.50 9289.57 600.30 o
2204 1 6 2 14 12460.50 9289.57 600.30 o
2205 3 6 2 14 12378.40 10239.10 924.66 o
2205 2 2 6 -14 12378.40 10239.10 924.66 o
2205 1 -6 -2 14 12378.40 10239.10 924.66 o
2206 3 -7 -2 14 1296.91 1669.59 514.03 o
2206 1 7 2 14 1296.91 1669.59 514.03 o
2207 3 7 2 14 1292.50 1740.81 806.86 o
2207 1 -7 -2 14 1292.50 1740.81 806.86 o
2208 3 -8 -2 14 1468.38 2682.42 409.67 o
2208 2 -2 -8 -14 1468.38 2682.42 409.67 o
2208 1 8 2 14 1468.38 2682.42 409.67 o
2209 3 -9 -2 14 76.31 822.93 427.02 <
2209 1 9 2 14 76.31 822.93 427.02 <
2210 3 -10 -2 14 682.31 917.88 458.83 <
2210 2 -2 -10 -14 682.31 917.88 458.83 <
2210 1 10 2 14 682.31 917.88 458.83 <
2211 3 9 -4 14 320.55 949.53 806.95 <
2211 1 -9 4 14 320.55 949.53 806.95 <
2212 3 -9 4 14 318.69 1289.78 482.16 o
2212 1 9 -4 14 318.69 1289.78 482.16 o
2213 3 8 -4 14 2441.92 3362.92 829.93 o
2213 2 -4 8 -14 2441.92 3362.92 829.93 o
2213 1 -8 4 14 2441.92 3362.92 829.93 o
2214 3 -8 4 14 2450.09 1780.37 522.93 o
2214 2 4 -8 -14 2450.09 1780.37 522.93 o
2214 1 8 -4 14 2450.09 1780.37 522.93 o
2215 3 7 -4 14 252.99 902.05 806.95 <
2215 1 -7 4 14 252.99 902.05 806.95 <
2216 3 -7 4 14 258.84 -15.83 490.60 <
2216 1 7 -4 14 258.84 -15.83 490.60 <
2217 3 6 -4 14 1979.92 1186.91 752.12 <
2217 2 -4 6 -14 1979.92 1186.91 752.12 <
2217 1 -6 4 14 1979.92 1186.91 752.12 <
2218 3 -6 4 14 1954.95 2215.57 458.62 o
2218 2 4 -6 -14 1954.95 2215.57 458.62 o
2218 1 6 -4 14 1954.95 2215.57 458.62 o
2219 3 5 -4 14 2144.58 1906.97 783.52 o
2219 1 -5 4 14 2144.58 1906.97 783.52 o
2220 3 -5 4 14 2139.35 1630.03 475.28 o
2220 1 5 -4 14 2139.35 1630.03 475.28 o
2221 3 4 -4 14 22187.80 19892.70 869.25 o
2221 2 -4 4 -14 22187.80 19892.70 869.25 o
2221 1 -4 4 14 22187.80 19892.70 869.25 o
2222 3 -4 4 14 22280.20 20280.40 550.82 o
2222 2 4 -4 -14 22280.20 20280.40 550.82 o
2222 1 4 -4 14 22280.20 20280.40 550.82 o
2223 3 3 -4 14 1628.44 2437.13 774.85 o
2223 1 -3 4 14 1628.44 2437.13 774.85 o
2224 3 -3 4 14 1635.58 2468.78 584.71 o
2224 1 3 -4 14 1635.58 2468.78 584.71 o
2225 3 2 -4 14 6781.45 4985.04 771.01 o
2225 2 -4 2 -14 6781.45 4985.04 771.01 o
2225 1 -2 4 14 6781.45 4985.04 771.01 o
2226 3 -2 4 14 6688.69 5633.88 619.92 o
2226 2 4 -2 -14 6688.69 5633.88 619.92 o
2226 1 2 -4 14 6688.69 5633.88 619.92 o
2227 3 1 -4 14 4758.69 5958.30 844.56 o
2227 1 -1 4 14 4758.69 5958.30 844.56 o
2228 3 -1 4 14 4758.93 4628.96 625.37 o
2228 1 1 -4 14 4758.93 4628.96 625.37 o
2229 3 0 -4 14 55344.10 56259.70 1047.35 o
2229 2 -4 0 -14 55344.10 56259.70 1047.35 o
2229 1 0 4 14 55344.10 56259.70 1047.35 o
2230 3 0 4 14 55337.40 54875.00 956.65 o
2230 2 4 0 -14 55337.40 54875.00 956.65 o
2230 1 0 -4 14 55337.40 54875.00 956.65 o
2231 3 -1 -4 14 4758.70 4043.42 863.44 o
2231 1 1 4 14 4758.70 4043.42 863.44 o
2232 3 1 4 14 4758.91 5000.86 1028.35 o
2232 1 -1 -4 14 4758.91 5000.86 1028.35 o
2233 3 -2 -4 14 6641.58 6646.71 854.57 o
2233 2 -4 -2 -14 6641.58 6646.71 854.57 o
2233 1 2 4 14 6641.58 6646.71 854.57 o
2234 3 2 4 14 6828.53 6915.75 854.39 o
2234 2 4 2 -14 6828.53 6915.75 854.39 o
2234 1 -2 -4 14 6828.53 6915.75 854.39 o
2235 3 -3 -4 14 1628.44 1289.78 823.08 <
2235 1 3 4 14 1628.44 1289.78 823.08 <
2236 3 3 4 14 1635.59 2247.22 814.60 o
2236 1 -3 -4 14 1635.59 2247.22 814.60 o
2237 3 -4 -4 14 22345.00 19647.40 832.95 o
2237 2 -4 -4 -14 22345.00 19647.40 832.95 o
2237 1 4 4 14 22345.00 19647.40 832.95 o
2238 3 4 4 14 22122.90 23129.00 895.25 o
2238 2 4 4 -14 22122.90 23129.00 895.25 o
2238 1 -4 -4 14 22122.90 23129.00 895.25 o
2239 3 -5 -4 14 2144.58 2255.14 640.83 o
2239 1 5 4 14 2144.58 2255.14 640.83 o
2240 3 5 4 14 2139.35 1455.95 839.12 <
2240 1 -5 -4 14 2139.35 1455.95 839.12 <
2241 3 -6 -4 14 1947.49 2041.49 577.54 o
2241 2 -4 -6 -14 1947.49 2041.49 577.54 o
2241 1 6 4 14 1947.49 2041.49 577.54 o
2242 3 6 4 14 1987.38 981.18 752.18 <
2242 2 4 6 -14 1987.38 981.18 752.18 <
2242 1 -6 -4 14 1987.38 981.18 752.18 <
2243 3 -7 -4 14 252.99 94.95 561.82 <
2243 1 7 4 14 252.99 94.95 561.82 <
2244 3 7 4 14 258.84 775.45 830.74 <
2244 1 -7 -4 14 258.84 775.45 830.74 <
2245 3 -8 -4 14 2451.63 1930.71 554.42 o
2245 2 -4 -8 -14 2451.63 1930.71 554.42 o
2245 1 8 4 14 2451.63 1930.71 554.42 o
2246 3 8 4 14 2440.39 2373.83 917.93 o
2246 2 4 8 -14 2440.39 2373.83 917.93 o
2246 1 -8 -4 14 2440.39 2373.83 917.93 o
2247 3 -9 -4 14 320.55 830.84 569.56 <
2247 1 9 4 14 320.55 830.84 569.56 <
2248 3 8 -6 14 153.46 1202.74 735.56 <
2248 2 -6 8 -14 153.46 1202.74 735.56 <
2248 1 -8 6 14 153.46 1202.74 735.56 <
2249 3 -8 6 14 151.00 31.65 506.42 <
2249 2 6 -8 -14 151.00 31.65 506.42 <
2249 1 8 -6 14 151.00 31.65 506.42 <
2250 3 7 -6 14 554.82 -39.56 791.31 <
2250 1 -7 6 14 554.82 -39.56 791.31 <
2251 3 -7 6 14 551.63 759.63 506.34 <
2251 1 7 -6 14 551.63 759.63 506.34 <
2252 3 6 -6 14 3963.48 4676.44 861.51 o
2252 2 -6 6 -14 3963.48 4676.44 861.51 o
2252 1 -6 6 14 3963.48 4676.44 861.51 o
2253 3 -6 6 14 3970.04 5079.99 567.27 o
2253 2 6 -6 -14 3970.04 5079.99 567.27 o
2253 1 6 -6 14 3970.04 5079.99 567.27 o
2254 3 5 -6 14 303.28 -47.48 585.55 <
2254 1 -5 6 14 303.28 -47.48 585.55 <
2255 3 -5 6 14 306.82 174.08 593.47 <
2255 1 5 -6 14 306.82 174.08 593.47 <
2256 3 4 -6 14 2003.29 2136.44 577.50 o
2256 2 -6 4 -14 2003.29 2136.44 577.50 o
2256 1 -4 6 14 2003.29 2136.44 577.50 o
2257 3 -4 6 14 1998.57 1740.81 569.94 o
2257 2 6 -4 -14 1998.57 1740.81 569.94 o
2257 1 4 -6 14 1998.57 1740.81 569.94 o
2258 3 3 -6 14 1596.15 1859.50 585.33 o
2258 1 -3 6 14 1596.15 1859.50 585.33 o
2259 3 -3 6 14 1591.75 2160.18 632.55 o
2259 1 3 -6 14 1591.75 2160.18 632.55 o
2260 3 2 -6 14 11170.90 8980.98 720.07 o
2260 2 -6 2 -14 11170.90 8980.98 720.07 o
2260 1 -2 6 14 11170.90 8980.98 720.07 o
2261 3 -2 6 14 11183.30 8711.94 674.06 o
2261 2 6 -2 -14 11183.30 8711.94 674.06 o
2261 1 2 -6 14 11183.30 8711.94 674.06 o
2262 3 1 -6 14 1089.39 1424.30 640.75 o
2262 1 -1 6 14 1089.39 1424.30 640.75 o
2263 3 -1 6 14 1094.91 593.46 625.27 <
2263 1 1 -6 14 1094.91 593.46 625.27 <
2264 3 0 -6 14 8313.28 7928.58 705.41 o
2264 2 -6 0 -14 8313.28 7928.58 705.41 o
2264 1 0 6 14 8313.28 7928.58 705.41 o
2265 3 0 6 14 8337.69 9068.02 701.79 o
2265 2 6 0 -14 8337.69 9068.02 701.79 o
2265 1 0 -6 14 8337.69 9068.02 701.79 o
2266 3 -1 -6 14 1089.39 1250.22 719.99 <
2266 1 1 6 14 1089.39 1250.22 719.99 <
2267 3 1 6 14 1094.92 1353.08 735.77 <
2267 1 -1 -6 14 1094.92 1353.08 735.77 <
2268 3 -2 -6 14 11210.40 8363.78 941.25 o
2268 2 -6 -2 -14 11210.40 8363.78 941.25 o
2268 1 2 6 14 11210.40 8363.78 941.25 o
2269 3 2 6 14 11143.80 10373.60 896.58 o
2269 2 6 2 -14 11143.80 10373.60 896.58 o
2269 1 -2 -6 14 11143.80 10373.60 896.58 o
2270 3 -3 -6 14 1596.15 1139.44 997.16 <
2270 1 3 6 14 1596.15 1139.44 997.16 <
2271 3 3 6 14 1591.75 1899.06 901.89 o
2271 1 -3 -6 14 1591.75 1899.06 901.89 o
2272 3 -4 -6 14 1985.21 1622.11 744.03 o
2272 2 -6 -4 -14 1985.21 1622.11 744.03 o
2272 1 4 6 14 1985.21 1622.11 744.03 o
2273 3 4 6 14 2016.65 2263.05 830.67 o
2273 2 6 4 -14 2016.65 2263.05 830.67 o
2273 1 -4 -6 14 2016.65 2263.05 830.67 o
2274 3 -5 -6 14 303.28 648.85 632.94 <
2274 1 5 6 14 303.28 648.85 632.94 <
2275 3 5 6 14 306.82 -150.34 783.36 <
2275 1 -5 -6 14 306.82 -150.34 783.36 <
2276 3 -6 -6 14 3974.63 3900.99 672.70 o
2276 2 -6 -6 -14 3974.63 3900.99 672.70 o
2276 1 6 6 14 3974.63 3900.99 672.70 o
2277 3 6 6 14 3958.90 5198.68 900.30 o
2277 2 6 6 -14 3958.90 5198.68 900.30 o
2277 1 -6 -6 14 3958.90 5198.68 900.30 o
2278 3 -7 -6 14 554.82 356.07 664.71 <
2278 1 7 6 14 554.82 356.07 664.71 <
2279 3 7 6 14 551.63 -640.93 870.31 <
2279 1 -7 -6 14 551.63 -640.93 870.31 <
2280 3 -8 -6 14 148.90 672.58 640.83 <
2280 2 -6 -8 -14 148.90 672.58 640.83 <
2280 1 8 6 14 148.90 672.58 640.83 <
2281 3 8 6 14 155.57 -110.78 862.49 <
2281 2 6 8 -14 155.57 -110.78 862.49 <
2281 1 -8 -6 14 155.57 -110.78 862.49 <
2282 3 6 -8 14 141.49 799.19 640.77 <
2282 2 -8 6 -14 141.49 799.19 640.77 <
2282 1 -6 8 14 141.49 799.19 640.77 <
2283 3 -6 8 14 138.27 1250.22 600.94 o
2283 2 8 -6 -14 138.27 1250.22 600.94 o
2283 1 6 -8 14 138.27 1250.22 600.94 o
2284 3 5 -8 14 367.10 1107.79 624.84 <
2284 1 -5 8 14 367.10 1107.79 624.84 <
2285 3 -5 8 14 365.66 395.64 585.54 <
2285 1 5 -8 14 365.66 395.64 585.54 <
2286 3 4 -8 14 2421.27 1851.58 625.60 o
2286 2 -8 4 -14 2421.27 1851.58 625.60 o
2286 1 -4 8 14 2421.27 1851.58 625.60 o
2287 3 -4 8 14 2421.02 2152.27 633.27 o
2287 2 8 -4 -14 2421.02 2152.27 633.27 o
2287 1 4 -8 14 2421.02 2152.27 633.27 o
2288 3 3 -8 14 150.39 387.73 680.47 <
2288 1 -3 8 14 150.39 387.73 680.47 <
2289 3 -3 8 14 152.64 411.46 609.24 <
2289 1 3 -8 14 152.64 411.46 609.24 <
2290 3 2 -8 14 1697.14 1653.77 593.49 o
2290 2 -8 2 -14 1697.14 1653.77 593.49 o
2290 1 -2 8 14 1697.14 1653.77 593.49 o
2291 3 -2 8 14 1704.06 1250.22 617.47 o
2291 2 8 -2 -14 1704.06 1250.22 617.47 o
2291 1 2 -8 14 1704.06 1250.22 617.47 o
2292 3 1 -8 14 450.49 538.07 688.39 <
2292 1 -1 8 14 450.49 538.07 688.39 <
2293 3 -1 8 14 448.56 292.77 648.87 <
2293 1 1 -8 14 448.56 292.77 648.87 <
2294 3 0 -8 14 2654.45 2025.67 720.58 o
2294 2 -8 0 -14 2654.45 2025.67 720.58 o
2294 1 0 8 14 2654.45 2025.67 720.58 o
2295 3 0 8 14 2646.10 2714.07 688.34 o
2295 2 8 0 -14 2646.10 2714.07 688.34 o
2295 1 0 -8 14 2646.10 2714.07 688.34 o
2296 3 -1 -8 14 450.49 387.73 783.37 <
2296 1 1 8 14 450.49 387.73 783.37 <
2297 3 1 8 14 448.55 427.29 712.15 <
2297 1 -1 -8 14 448.55 427.29 712.15 <
2298 3 -2 -8 14 1696.66 2183.92 806.78 o
2298 2 -8 -2 -14 1696.66 2183.92 806.78 o
2298 1 2 8 14 1696.66 2183.92 806.78 o
2299 3 2 8 14 1704.53 2065.23 751.46 o
2299 2 8 2 -14 1704.53 2065.23 751.46 o
2299 1 -2 -8 14 1704.53 2065.23 751.46 o
2300 3 -3 -8 14 150.39 -237.38 822.91 <
2300 1 3 8 14 150.39 -237.38 822.91 <
2301 3 3 8 14 152.64 1115.70 759.36 <
2301 1 -3 -8 14 152.64 1115.70 759.36 <
2302 3 -4 -8 14 2425.02 2587.47 862.36 o
2302 2 -8 -4 -14 2425.02 2587.47 862.36 o
2302 1 4 8 14 2425.02 2587.47 862.36 o
2303 3 4 8 14 2417.28 1724.98 839.18 o
2303 2 8 4 -14 2417.28 1724.98 839.18 o
2303 1 -4 -8 14 2417.28 1724.98 839.18 o
2304 3 -5 -8 14 367.10 332.34 727.98 <
2304 1 5 8 14 367.10 332.34 727.98 <
2305 3 5 8 14 365.66 1360.99 893.84 <
2305 1 -5 -8 14 365.66 1360.99 893.84 <
2306 3 -6 -8 14 136.39 902.05 743.62 <
2306 2 -8 -6 -14 136.39 902.05 743.62 <
2306 1 6 8 14 136.39 902.05 743.62 <
2307 3 6 8 14 143.37 -15.83 894.14 <
2307 2 8 6 -14 143.37 -15.83 894.14 <
2307 1 -6 -8 14 143.37 -15.83 894.14 <
2308 3 2 -10 14 669.56 1115.70 704.07 <
2308 2 -10 2 -14 669.56 1115.70 704.07 <
2308 1 -2 10 14 669.56 1115.70 704.07 <
2309 3 -2 10 14 667.93 838.75 601.31 <
2309 2 10 -2 -14 667.93 838.75 601.31 <
2309 1 2 -10 14 667.93 838.75 601.31 <
2310 3 1 -10 14 53.13 973.27 719.83 <
2310 1 -1 10 14 53.13 973.27 719.83 <
2311 3 -1 10 14 53.48 902.05 696.12 <
2311 1 1 -10 14 53.48 902.05 696.12 <
2312 3 0 -10 14 357.79 1099.87 783.15 <
2312 2 -10 0 -14 357.79 1099.87 783.15 <
2312 1 0 10 14 357.79 1099.87 783.15 <
2313 3 0 10 14 359.25 1242.30 711.83 <
2313 2 10 0 -14 359.25 1242.30 711.83 <
2313 1 0 -10 14 359.25 1242.30 711.83 <
2314 3 -1 -10 14 53.13 807.10 751.56 <
2314 1 1 10 14 53.13 807.10 751.56 <
2315 3 1 10 14 53.48 917.88 743.60 <
2315 1 -1 -10 14 53.48 917.88 743.60 <
2316 3 -2 -10 14 669.54 1044.48 830.73 <
2316 2 -10 -2 -14 669.54 1044.48 830.73 <
2316 1 2 10 14 669.54 1044.48 830.73 <
2317 3 2 10 14 667.95 1630.03 767.10 o
2317 2 10 2 -14 667.95 1630.03 767.10 o
2317 1 -2 -10 14 667.95 1630.03 767.10 o
2318 3 -10 1 15 56.55 1495.51 426.38 o
2318 1 10 -1 15 56.55 1495.51 426.38 o
2319 3 9 -1 15 336.55 276.95 767.54 <
2319 2 -1 9 -15 336.55 276.95 767.54 <
2319 1 -9 1 15 336.55 276.95 767.54 <
2320 3 -9 1 15 335.69 1139.44 506.05 o
2320 2 1 -9 -15 335.69 1139.44 506.05 o
2320 1 9 -1 15 335.69 1139.44 506.05 o
2321 3 8 -1 15 6.35 609.28 735.80 <
2321 1 -8 1 15 6.35 609.28 735.80 <
2322 3 -8 1 15 5.96 110.78 466.85 <
2322 1 8 -1 15 5.96 110.78 466.85 <
2323 3 7 -1 15 2141.40 2176.01 902.03 o
2323 2 -1 7 -15 2141.40 2176.01 902.03 o
2323 1 -7 1 15 2141.40 2176.01 902.03 o
2324 3 -7 1 15 2135.54 1724.98 498.91 o
2324 2 1 -7 -15 2135.54 1724.98 498.91 o
2324 1 7 -1 15 2135.54 1724.98 498.91 o
2325 3 6 -1 15 1463.86 1614.20 712.06 o
2325 1 -6 1 15 1463.86 1614.20 712.06 o
2326 3 -6 1 15 1470.53 1281.87 467.00 o
2326 1 6 -1 15 1470.53 1281.87 467.00 o
2327 3 5 -1 15 5677.51 5673.44 799.20 o
2327 2 -1 5 -15 5677.51 5673.44 799.20 o
2327 1 -5 1 15 5677.51 5673.44 799.20 o
2328 3 -5 1 15 5667.80 6100.73 505.06 o
2328 2 1 -5 -15 5667.80 6100.73 505.06 o
2328 1 5 -1 15 5667.80 6100.73 505.06 o
2329 3 4 -1 15 5270.53 4486.53 934.77 o
2329 1 -4 1 15 5270.53 4486.53 934.77 o
2330 3 -4 1 15 5275.71 4415.32 516.42 o
2330 1 4 -1 15 5275.71 4415.32 516.42 o
2331 3 3 -1 15 23882.70 24133.90 701.94 o
2331 2 -1 3 -15 23882.70 24133.90 701.94 o
2331 1 -3 1 15 23882.70 24133.90 701.94 o
2332 3 -3 1 15 23913.90 23073.60 766.48 o
2332 2 1 -3 -15 23913.90 23073.60 766.48 o
2332 1 3 -1 15 23913.90 23073.60 766.48 o
2333 3 2 -1 15 5499.14 4921.73 705.35 o
2333 1 -2 1 15 5499.14 4921.73 705.35 o
2334 3 -2 1 15 5478.23 4945.47 736.88 o
2334 1 2 -1 15 5478.23 4945.47 736.88 o
2335 3 1 -1 15 59123.60 61529.60 940.64 o
2335 2 -1 1 -15 59123.60 61529.60 940.64 o
2335 1 -1 1 15 59123.60 61529.60 940.64 o
2336 3 -1 1 15 59064.90 61094.40 1012.69 o
2336 2 1 -1 -15 59064.90 61094.40 1012.69 o
2336 1 1 -1 15 59064.90 61094.40 1012.69 o
2337 3 -1 -1 15 59023.70 60548.40 1117.81 o
2337 2 -1 -1 -15 59023.70 60548.40 1117.81 o
2337 1 1 1 15 59023.70 60548.40 1117.81 o
2338 3 1 1 15 59164.70 63357.40 1118.70 o
2338 2 1 1 -15 59164.70 63357.40 1118.70 o
2338 1 -1 -1 15 59164.70 63357.40 1118.70 o
2339 3 -2 -1 15 5499.10 4898.00 871.34 o
2339 1 2 1 15 5499.10 4898.00 871.34 o
2340 3 2 1 15 5478.24 5214.51 791.75 o
2340 1 -2 -1 15 5478.24 5214.51 791.75 o
2341 3 -3 -1 15 23886.90 22638.40 840.03 o
2341 2 -1 -3 -15 23886.90 22638.40 840.03 o
2341 1 3 1 15 23886.90 22638.40 840.03 o
2342 3 3 1 15 23909.70 23469.20 794.77 o
2342 2 1 3 -15 23909.70 23469.20 794.77 o
2342 1 -3 -1 15 23909.70 23469.20 794.77 o
2343 3 -4 -1 15 5270.57 4668.53 689.54 o
2343 1 4 1 15 5270.57 4668.53 689.54 o
2344 3 4 1 15 5275.72 5475.63 648.40 o
2344 1 -4 -1 15 5275.72 5475.63 648.40 o
2345 3 -5 -1 15 5666.34 4985.04 666.09 o
2345 2 -1 -5 -15 5666.34 4985.04 666.09 o
2345 1 5 1 15 5666.34 4985.04 666.09 o
2346 3 5 1 15 5678.94 6322.29 639.30 o
2346 2 1 5 -15 5678.94 6322.29 639.30 o
2346 1 -5 -1 15 5678.94 6322.29 639.30 o
2347 3 -6 -1 15 1463.85 1487.60 672.57 o
2347 1 6 1 15 1463.85 1487.60 672.57 o
2348 3 6 1 15 1470.53 237.38 894.38 <
2348 1 -6 -1 15 1470.53 237.38 894.38 <
2349 3 -7 -1 15 2138.64 2445.04 418.92 o
2349 2 -1 -7 -15 2138.64 2445.04 418.92 o
2349 1 7 1 15 2138.64 2445.04 418.92 o
2350 3 -8 -1 15 6.36 -71.21 411.46 <
2350 1 8 1 15 6.36 -71.21 411.46 <
2351 3 -9 -1 15 335.23 696.32 427.16 <
2351 2 -1 -9 -15 335.23 696.32 427.16 <
2351 1 9 1 15 335.23 696.32 427.16 <
2352 3 -10 -1 15 56.21 720.06 466.66 <
2352 1 10 1 15 56.21 720.06 466.66 <
2353 3 9 -3 15 794.94 403.55 807.17 <
2353 2 -3 9 -15 794.94 403.55 807.17 <
2353 1 -9 3 15 794.94 403.55 807.17 <
2354 3 -9 3 15 794.00 664.67 466.90 <
2354 2 3 -9 -15 794.00 664.67 466.90 <
2354 1 9 -3 15 794.00 664.67 466.90 <
2355 3 8 -3 15 216.89 609.28 743.73 <
2355 1 -8 3 15 216.89 609.28 743.73 <
2356 3 -8 3 15 219.74 522.24 506.35 <
2356 1 8 -3 15 219.74 522.24 506.35 <
2357 3 7 -3 15 928.09 -63.30 743.89 <
2357 2 -3 7 -15 928.09 -63.30 743.89 <
2357 1 -7 3 15 928.09 -63.30 743.89 <
2358 3 -7 3 15 918.73 846.66 474.80 <
2358 2 3 -7 -15 918.73 846.66 474.80 <
2358 1 7 -3 15 918.73 846.66 474.80 <
2359 3 6 -3 15 19.77 31.65 751.71 <
2359 1 -6 3 15 19.77 31.65 751.71 <
2360 3 -6 3 15 21.06 720.06 474.57 <
2360 1 6 -3 15 21.06 720.06 474.57 <
2361 3 5 -3 15 7405.91 7232.26 799.61 o
2361 2 -3 5 -15 7405.91 7232.26 799.61 o
2361 1 -5 3 15 7405.91 7232.26 799.61 o
2362 3 -5 3 15 7381.51 6401.42 502.02 o
2362 2 3 -5 -15 7381.51 6401.42 502.02 o
2362 1 5 -3 15 7381.51 6401.42 502.02 o
2363 3 4 -3 15 1483.09 1171.09 751.85 <
2363 1 -4 3 15 1483.09 1171.09 751.85 <
2364 3 -4 3 15 1485.80 1337.26 459.06 o
2364 1 4 -3 15 1485.80 1337.26 459.06 o
2365 3 3 -3 15 8956.59 9716.86 820.59 o
2365 2 -3 3 -15 8956.59 9716.86 820.59 o
2365 1 -3 3 15 8956.59 9716.86 820.59 o
2366 3 -3 3 15 8929.10 9329.14 472.70 o
2366 2 3 -3 -15 8929.10 9329.14 472.70 o
2366 1 3 -3 15 8929.10 9329.14 472.70 o
2367 3 2 -3 15 479.65 1028.66 775.29 <
2367 1 -2 3 15 479.65 1028.66 775.29 <
2368 3 -2 3 15 470.86 775.45 522.14 <
2368 1 2 -3 15 470.86 775.45 522.14 <
2369 3 1 -3 15 23242.80 25186.30 976.15 o
2369 2 -3 1 -15 23242.80 25186.30 976.15 o
2369 1 -1 3 15 23242.80 25186.30 976.15 o
2370 3 -1 3 15 23175.80 23318.90 663.33 o
2370 2 3 -1 -15 23175.80 23318.90 663.33 o
2370 1 1 -3 15 23175.80 23318.90 663.33 o
2371 3 -1 -3 15 23177.40 23857.00 952.96 o
2371 2 -3 -1 -15 23177.40 23857.00 952.96 o
2371 1 1 3 15 23177.40 23857.00 952.96 o
2372 3 1 3 15 23241.20 23944.00 944.84 o
2372 2 3 1 -15 23241.20 23944.00 944.84 o
2372 1 -1 -3 15 23241.20 23944.00 944.84 o
2373 3 -2 -3 15 479.66 949.53 783.24 <
2373 1 2 3 15 479.66 949.53 783.24 <
2374 3 2 3 15 470.86 1637.94 790.78 o
2374 1 -2 -3 15 470.86 1637.94 790.78 o
2375 3 -3 -3 15 8909.85 10927.50 895.92 o
2375 2 -3 -3 -15 8909.85 10927.50 895.92 o
2375 1 3 3 15 8909.85 10927.50 895.92 o
2376 3 3 3 15 8975.92 9811.82 828.28 o
2376 2 3 3 -15 8975.92 9811.82 828.28 o
2376 1 -3 -3 15 8975.92 9811.82 828.28 o
2377 3 -4 -3 15 1483.08 1724.98 680.34 o
2377 1 4 3 15 1483.08 1724.98 680.34 o
2378 3 4 3 15 1485.80 2096.88 782.97 o
2378 1 -4 -3 15 1485.80 2096.88 782.97 o
2379 3 -5 -3 15 7382.35 7050.26 602.42 o
2379 2 -3 -5 -15 7382.35 7050.26 602.42 o
2379 1 5 3 15 7382.35 7050.26 602.42 o
2380 3 5 3 15 7405.05 8300.48 860.27 o
2380 2 3 5 -15 7405.05 8300.48 860.27 o
2380 1 -5 -3 15 7405.05 8300.48 860.27 o
2381 3 -6 -3 15 19.77 189.91 545.97 <
2381 1 6 3 15 19.77 189.91 545.97 <
2382 3 6 3 15 21.06 150.34 838.75 <
2382 1 -6 -3 15 21.06 150.34 838.75 <
2383 3 -7 -3 15 919.48 799.19 546.03 <
2383 2 -3 -7 -15 919.48 799.19 546.03 <
2383 1 7 3 15 919.48 799.19 546.03 <
2384 3 7 3 15 927.35 1630.03 838.44 <
2384 2 3 7 -15 927.35 1630.03 838.44 <
2384 1 -7 -3 15 927.35 1630.03 838.44 <
2385 3 -8 -3 15 216.89 1052.40 545.66 <
2385 1 8 3 15 216.89 1052.40 545.66 <
2386 3 8 3 15 219.74 1202.74 901.80 <
2386 1 -8 -3 15 219.74 1202.74 901.80 <
2387 3 -9 -3 15 794.34 625.11 443.18 <
2387 2 -3 -9 -15 794.34 625.11 443.18 <
2387 1 9 3 15 794.34 625.11 443.18 <
2388 3 8 -5 15 123.00 2160.18 829.87 o
2388 1 -8 5 15 123.00 2160.18 829.87 o
2389 3 -8 5 15 121.48 672.58 474.61 <
2389 1 8 -5 15 121.48 672.58 474.61 <
2390 3 7 -5 15 2380.88 2777.38 870.08 o
2390 2 -5 7 -15 2380.88 2777.38 870.08 o
2390 1 -7 5 15 2380.88 2777.38 870.08 o
2391 3 -7 5 15 2380.75 2785.29 521.69 o
2391 2 5 -7 -15 2380.75 2785.29 521.69 o
2391 1 7 -5 15 2380.75 2785.29 521.69 o
2392 3 6 -5 15 188.63 838.75 727.83 <
2392 1 -6 5 15 188.63 838.75 727.83 <
2393 3 -6 5 15 190.47 -150.34 474.76 <
2393 1 6 -5 15 190.47 -150.34 474.76 <
2394 3 5 -5 15 1579.43 696.32 807.39 <
2394 2 -5 5 -15 1579.43 696.32 807.39 <
2394 1 -5 5 15 1579.43 696.32 807.39 <
2395 3 -5 5 15 1574.84 1637.94 474.71 o
2395 2 5 -5 -15 1574.84 1637.94 474.71 o
2395 1 5 -5 15 1574.84 1637.94 474.71 o
2396 3 4 -5 15 71.51 1337.26 806.72 <
2396 1 -4 5 15 71.51 1337.26 806.72 <
2397 3 -4 5 15 70.40 -759.63 609.11 <
2397 1 4 -5 15 70.40 -759.63 609.11 <
2398 3 3 -5 15 7315.59 6306.47 683.12 o
2398 2 -5 3 -15 7315.59 6306.47 683.12 o
2398 1 -3 5 15 7315.59 6306.47 683.12 o
2399 3 -3 5 15 7327.37 7287.65 593.59 o
2399 2 5 -3 -15 7327.37 7287.65 593.59 o
2399 1 3 -5 15 7327.37 7287.65 593.59 o
2400 3 2 -5 15 60.49 458.94 664.62 <
2400 1 -2 5 15 60.49 458.94 664.62 <
2401 3 -2 5 15 63.81 371.90 601.33 <
2401 1 2 -5 15 63.81 371.90 601.33 <
2402 3 1 -5 15 5179.22 5000.86 712.49 o
2402 2 -5 1 -15 5179.22 5000.86 712.49 o
2402 1 -1 5 15 5179.22 5000.86 712.49 o
2403 3 -1 5 15 5180.33 4842.61 633.72 o
2403 2 5 -1 -15 5180.33 4842.61 633.72 o
2403 1 1 -5 15 5180.33 4842.61 633.72 o
2404 3 -1 -5 15 5175.72 5681.36 901.23 o
2404 2 -5 -1 -15 5175.72 5681.36 901.23 o
2404 1 1 5 15 5175.72 5681.36 901.23 o
2405 3 1 5 15 5183.80 6298.55 884.24 o
2405 2 5 1 -15 5183.80 6298.55 884.24 o
2405 1 -1 -5 15 5183.80 6298.55 884.24 o
2406 3 -2 -5 15 60.49 633.02 767.45 <
2406 1 2 5 15 60.49 633.02 767.45 <
2407 3 2 5 15 63.81 -237.38 807.09 <
2407 1 -2 -5 15 63.81 -237.38 807.09 <
2408 3 -3 -5 15 7317.66 6994.88 894.83 o
2408 2 -5 -3 -15 7317.66 6994.88 894.83 o
2408 1 3 5 15 7317.66 6994.88 894.83 o
2409 3 3 5 15 7325.30 6346.03 888.19 o
2409 2 5 3 -15 7325.30 6346.03 888.19 o
2409 1 -3 -5 15 7325.30 6346.03 888.19 o
2410 3 -4 -5 15 71.51 451.03 1020.71 <
2410 1 4 5 15 71.51 451.03 1020.71 <
2411 3 4 5 15 70.40 356.07 751.68 <
2411 1 -4 -5 15 70.40 356.07 751.68 <
2412 3 -5 -5 15 1571.61 1717.07 735.80 o
2412 2 -5 -5 -15 1571.61 1717.07 735.80 o
2412 1 5 5 15 1571.61 1717.07 735.80 o
2413 3 5 5 15 1582.65 2176.01 790.88 o
2413 2 5 5 -15 1582.65 2176.01 790.88 o
2413 1 -5 -5 15 1582.65 2176.01 790.88 o
2414 3 -6 -5 15 188.63 -221.56 625.09 <
2414 1 6 5 15 188.63 -221.56 625.09 <
2415 3 6 5 15 190.47 973.27 854.40 <
2415 1 -6 -5 15 190.47 973.27 854.40 <
2416 3 -7 -5 15 2382.85 2033.58 633.34 o
2416 2 -5 -7 -15 2382.85 2033.58 633.34 o
2416 1 7 5 15 2382.85 2033.58 633.34 o
2417 3 7 5 15 2378.78 2840.68 862.11 o
2417 2 5 7 -15 2378.78 2840.68 862.11 o
2417 1 -7 -5 15 2378.78 2840.68 862.11 o
2418 3 -8 -5 15 123.00 593.46 625.02 <
2418 1 8 5 15 123.00 593.46 625.02 <
2419 3 8 5 15 121.48 894.14 870.25 <
2419 1 -8 -5 15 121.48 894.14 870.25 <
2420 3 7 -7 15 237.52 965.36 949.38 <
2420 2 -7 7 -15 237.52 965.36 949.38 <
2420 1 -7 7 15 237.52 965.36 949.38 <
2421 3 -7 7 15 236.49 1796.20 513.30 o
2421 2 7 -7 -15 236.49 1796.20 513.30 o
2421 1 7 -7 15 236.49 1796.20 513.30 o
2422 3 6 -7 15 142.76 166.17 799.19 <
2422 1 -6 7 15 142.76 166.17 799.19 <
2423 3 -6 7 15 141.84 886.23 545.75 <
2423 1 6 -7 15 141.84 886.23 545.75 <
2424 3 5 -7 15 2470.68 3125.54 608.45 o
2424 2 -7 5 -15 2470.68 3125.54 608.45 o
2424 1 -5 7 15 2470.68 3125.54 608.45 o
2425 3 -5 7 15 2474.96 2619.12 537.88 o
2425 2 7 -5 -15 2474.96 2619.12 537.88 o
2425 1 5 -7 15 2474.96 2619.12 537.88 o
2426 3 4 -7 15 53.31 221.56 633.01 <
2426 1 -4 7 15 53.31 221.56 633.01 <
2427 3 -4 7 15 54.55 79.13 625.11 <
2427 1 4 -7 15 54.55 79.13 625.11 <
2428 3 3 -7 15 915.81 1574.64 640.56 o
2428 2 -7 3 -15 915.81 1574.64 640.56 o
2428 1 -3 7 15 915.81 1574.64 640.56 o
2429 3 -3 7 15 921.17 1139.44 577.52 <
2429 2 7 -3 -15 921.17 1139.44 577.52 <
2429 1 3 -7 15 921.17 1139.44 577.52 <
2430 3 2 -7 15 66.45 -102.87 640.93 <
2430 1 -2 7 15 66.45 -102.87 640.93 <
2431 3 -2 7 15 65.08 1012.83 593.16 <
2431 1 2 -7 15 65.08 1012.83 593.16 <
2432 3 1 -7 15 1980.77 2627.03 703.65 o
2432 2 -7 1 -15 1980.77 2627.03 703.65 o
2432 1 -1 7 15 1980.77 2627.03 703.65 o
2433 3 -1 7 15 1989.41 2856.50 647.93 o
2433 2 7 -1 -15 1989.41 2856.50 647.93 o
2433 1 1 -7 15 1989.41 2856.50 647.93 o
2434 3 -1 -7 15 1988.28 1851.58 751.80 o
2434 2 -7 -1 -15 1988.28 1851.58 751.80 o
2434 1 1 7 15 1988.28 1851.58 751.80 o
2435 3 1 7 15 1981.91 2120.62 704.13 o
2435 2 7 1 -15 1981.91 2120.62 704.13 o
2435 1 -1 -7 15 1981.91 2120.62 704.13 o
2436 3 -2 -7 15 66.45 -981.18 822.71 <
2436 1 2 7 15 66.45 -981.18 822.71 <
2437 3 2 7 15 65.08 727.97 775.33 <
2437 1 -2 -7 15 65.08 727.97 775.33 <
2438 3 -3 -7 15 917.62 427.29 925.88 <
2438 2 -7 -3 -15 917.62 427.29 925.88 <
2438 1 3 7 15 917.62 427.29 925.88 <
2439 3 3 7 15 919.36 514.33 870.48 <
2439 2 7 3 -15 919.36 514.33 870.48 <
2439 1 -3 -7 15 919.36 514.33 870.48 <
2440 3 -4 -7 15 53.31 427.29 830.80 <
2440 1 4 7 15 53.31 427.29 830.80 <
2441 3 4 7 15 54.55 -514.33 909.91 <
2441 1 -4 -7 15 54.55 -514.33 909.91 <
2442 3 -5 -7 15 2475.78 2674.51 775.27 o
2442 2 -7 -5 -15 2475.78 2674.51 775.27 o
2442 1 5 7 15 2475.78 2674.51 775.27 o
2443 3 5 7 15 2469.86 3513.26 901.08 o
2443 2 7 5 -15 2469.86 3513.26 901.08 o
2443 1 -5 -7 15 2469.86 3513.26 901.08 o
2444 3 -6 -7 15 142.76 553.89 735.82 <
2444 1 6 7 15 142.76 553.89 735.82 <
2445 3 6 7 15 141.84 150.34 894.14 <
2445 1 -6 -7 15 141.84 150.34 894.14 <
2446 3 -7 -7 15 235.77 735.89 767.44 <
2446 2 -7 -7 -15 235.77 735.89 767.44 <
2446 1 7 7 15 235.77 735.89 767.44 <
2447 3 7 7 15 238.24 3038.50 868.59 o
2447 2 7 7 -15 238.24 3038.50 868.59 o
2447 1 -7 -7 15 238.24 3038.50 868.59 o
2448 3 4 -9 15 55.64 1859.50 663.76 o
2448 1 -4 9 15 55.64 1859.50 663.76 o
2449 3 -4 9 15 55.23 253.21 625.09 <
2449 1 4 -9 15 55.23 253.21 625.09 <
2450 3 3 -9 15 880.55 553.89 625.20 <
2450 2 -9 3 -15 880.55 553.89 625.20 <
2450 1 -3 9 15 880.55 553.89 625.20 <
2451 3 -3 9 15 881.63 1542.99 616.82 o
2451 2 9 -3 -15 881.63 1542.99 616.82 o
2451 1 3 -9 15 881.63 1542.99 616.82 o
2452 3 2 -9 15 7.14 743.80 624.95 <
2452 1 -2 9 15 7.14 743.80 624.95 <
2453 3 -2 9 15 7.36 387.73 648.80 <
2453 1 2 -9 15 7.36 387.73 648.80 <
2454 3 1 -9 15 348.74 1091.96 688.17 <
2454 2 -9 1 -15 348.74 1091.96 688.17 <
2454 1 -1 9 15 348.74 1091.96 688.17 <
2455 3 -1 9 15 348.18 902.05 593.28 <
2455 2 9 -1 -15 348.18 902.05 593.28 <
2455 1 1 -9 15 348.18 902.05 593.28 <
2456 3 -1 -9 15 347.64 458.94 830.82 <
2456 2 -9 -1 -15 347.64 458.94 830.82 <
2456 1 1 9 15 347.64 458.94 830.82 <
2457 3 1 9 15 349.29 720.06 759.55 <
2457 2 9 1 -15 349.29 720.06 759.55 <
2457 1 -1 -9 15 349.29 720.06 759.55 <
2458 3 -2 -9 15 7.14 189.91 838.74 <
2458 1 2 9 15 7.14 189.91 838.74 <
2459 3 2 9 15 7.36 712.15 791.16 <
2459 1 -2 -9 15 7.36 712.15 791.16 <
2460 3 -3 -9 15 881.38 917.88 941.61 <
2460 2 -9 -3 -15 881.38 917.88 941.61 <
2460 1 3 9 15 881.38 917.88 941.61 <
2461 3 3 9 15 880.80 1448.03 838.53 <
2461 2 9 3 -15 880.80 1448.03 838.53 <
2461 1 -3 -9 15 880.80 1448.03 838.53 <
2462 3 -4 -9 15 55.64 213.64 973.26 <
2462 1 4 9 15 55.64 213.64 973.26 <
2463 3 4 9 15 55.23 87.04 949.53 <
2463 1 -4 -9 15 55.23 87.04 949.53 <
2464 3 0 0 16 80559.40 93623.70 822.39 o
2464 2 0 0 -16 80559.40 93623.70 822.39 o
2464 1 0 0 16 80559.40 93623.70 822.39 o
2465 3 -1 0 16 5855.88 7430.08 835.29 o
2465 1 1 0 16 5855.88 7430.08 835.29 o
2466 3 1 0 16 5855.87 6567.59 821.47 o
2466 1 -1 0 16 5855.87 6567.59 821.47 o
2467 3 -2 0 16 34020.80 34737.00 894.72 o
2467 2 0 -2 -16 34020.80 34737.00 894.72 o
2467 1 2 0 16 34020.80 34737.00 894.72 o
2468 3 2 0 16 34237.80 35678.60 782.08 o
2468 2 0 2 -16 34237.80 35678.60 782.08 o
2468 1 -2 0 16 34237.80 35678.60 782.08 o
2469 3 -3 0 16 37308.70 35235.50 900.65 o
2469 1 3 0 16 37308.70 35235.50 900.65 o
2470 3 3 0 16 37308.60 37917.90 823.43 o
2470 1 -3 0 16 37308.60 37917.90 823.43 o
2471 3 -4 0 16 57788.50 55927.40 932.65 o
2471 2 0 -4 -16 57788.50 55927.40 932.65 o
2471 1 4 0 16 57788.50 55927.40 932.65 o
2472 3 4 0 16 57752.30 55183.60 868.32 o
2472 2 0 4 -16 57752.30 55183.60 868.32 o
2472 1 -4 0 16 57752.30 55183.60 868.32 o
2473 3 -5 0 16 21.80 720.06 664.53 <
2473 1 5 0 16 21.80 720.06 664.53 <
2474 3 5 0 16 21.80 363.99 593.42 <
2474 1 -5 0 16 21.80 363.99 593.42 <
2475 3 -6 0 16 1090.62 261.12 514.56 <
2475 2 0 -6 -16 1090.62 261.12 514.56 <
2475 1 6 0 16 1090.62 261.12 514.56 <
2476 3 6 0 16 1105.44 -55.39 704.38 <
2476 2 0 6 -16 1105.44 -55.39 704.38 <
2476 1 -6 0 16 1105.44 -55.39 704.38 <
2477 3 -7 0 16 3331.46 3173.01 467.14 o
2477 1 7 0 16 3331.46 3173.01 467.14 o
2478 3 7 0 16 3331.46 2547.91 736.68 o
2478 1 -7 0 16 3331.46 2547.91 736.68 o
2479 3 -8 0 16 8978.34 9186.71 505.42 o
2479 2 0 -8 -16 8978.34 9186.71 505.42 o
2479 1 8 0 16 8978.34 9186.71 505.42 o
2480 3 -9 0 16 352.53 680.50 450.92 <
2480 1 9 0 16 352.53 680.50 450.92 <
2481 3 -10 0 16 67.62 1004.92 434.80 o
2481 2 0 -10 -16 67.62 1004.92 434.80 o
2481 1 10 0 16 67.62 1004.92 434.80 o
2482 3 9 -2 16 209.43 2255.14 790.19 o
2482 1 -9 2 16 209.43 2255.14 790.19 o
2483 3 -9 2 16 208.57 577.63 458.84 <
2483 1 9 -2 16 208.57 577.63 458.84 <
2484 3 8 -2 16 178.92 -363.99 720.02 <
2484 2 -2 8 -16 178.92 -363.99 720.02 <
2484 1 -8 2 16 178.92 -363.99 720.02 <
2485 3 -8 2 16 176.54 63.30 482.68 <
2485 2 2 -8 -16 176.54 63.30 482.68 <
2485 1 8 -2 16 176.54 63.30 482.68 <
2486 3 7 -2 16 447.13 1163.17 767.31 <
2486 1 -7 2 16 447.13 1163.17 767.31 <
2487 3 -7 2 16 450.73 957.44 450.79 o
2487 1 7 -2 16 450.73 957.44 450.79 o
2488 3 6 -2 16 24518.70 25130.90 849.80 o
2488 2 -2 6 -16 24518.70 25130.90 849.80 o
2488 1 -6 2 16 24518.70 25130.90 849.80 o
2489 3 -6 2 16 24523.80 25020.10 563.91 o
2489 2 2 -6 -16 24523.80 25020.10 563.91 o
2489 1 6 -2 16 24523.80 25020.10 563.91 o
2490 3 5 -2 16 10251.80 9803.90 919.17 o
2490 1 -5 2 16 10251.80 9803.90 919.17 o
2491 3 -5 2 16 10247.10 8514.12 545.82 o
2491 1 5 -2 16 10247.10 8514.12 545.82 o
2492 3 4 -2 16 5513.53 5396.50 767.76 o
2492 2 -2 4 -16 5513.53 5396.50 767.76 o
2492 1 -4 2 16 5513.53 5396.50 767.76 o
2493 3 -4 2 16 5492.73 5372.76 483.04 o
2493 2 2 -4 -16 5492.73 5372.76 483.04 o
2493 1 4 -2 16 5492.73 5372.76 483.04 o
2494 3 3 -2 16 937.74 2128.53 790.58 o
2494 1 -3 2 16 937.74 2128.53 790.58 o
2495 3 -3 2 16 931.44 807.10 514.38 <
2495 1 3 -2 16 931.44 807.10 514.38 <
2496 3 2 -2 16 71605.20 76801.20 1223.34 o
2496 2 -2 2 -16 71605.20 76801.20 1223.34 o
2496 1 -2 2 16 71605.20 76801.20 1223.34 o
2497 3 -2 2 16 71653.50 73090.10 763.59 o
2497 2 2 -2 -16 71653.50 73090.10 763.59 o
2497 1 2 -2 16 71653.50 73090.10 763.59 o
2498 3 1 -2 16 22251.40 21071.70 1043.06 o
2498 1 -1 2 16 22251.40 21071.70 1043.06 o
2499 3 -1 2 16 22291.80 24315.90 702.11 o
2499 1 1 -2 16 22291.80 24315.90 702.11 o
2500 3 0 -2 16 35118.60 34428.40 1113.53 o
2500 2 -2 0 -16 35118.60 34428.40 1113.53 o
2500 1 0 2 16 35118.60 34428.40 1113.53 o
2501 3 0 2 16 35208.10 35670.70 976.71 o
2501 2 2 0 -16 35208.10 35670.70 976.71 o
2501 1 0 -2 16 35208.10 35670.70 976.71 o
2502 3 -1 -2 16 22251.40 23667.10 1147.66 o
2502 1 1 2 16 22251.40 23667.10 1147.66 o
2503 3 1 2 16 22291.70 24450.40 1127.38 o
2503 1 -1 -2 16 22291.70 24450.40 1127.38 o
2504 3 -2 -2 16 71687.30 77070.20 1126.41 o
2504 2 -2 -2 -16 71687.30 77070.20 1126.41 o
2504 1 2 2 16 71687.30 77070.20 1126.41 o
2505 3 2 2 16 71571.20 74957.50 1718.26 o
2505 2 2 2 -16 71571.20 74957.50 1718.26 o
2505 1 -2 -2 16 71571.20 74957.50 1718.26 o
2506 3 -3 -2 16 937.74 134.52 838.85 <
2506 1 3 2 16 937.74 134.52 838.85 <
2507 3 3 2 16 931.44 1669.59 806.75 o
2507 1 -3 -2 16 931.44 1669.59 806.75 o
2508 3 -4 -2 16 5499.69 5459.80 625.20 o
2508 2 -2 -4 -16 5499.69 5459.80 625.20 o
2508 1 4 2 16 5499.69 5459.80 625.20 o
2509 3 4 2 16 5506.56 4628.96 784.83 o
2509 2 2 4 -16 5506.56 4628.96 784.83 o
2509 1 -4 -2 16 5506.56 4628.96 784.83 o
2510 3 -5 -2 16 10251.80 9012.63 614.37 o
2510 1 5 2 16 10251.80 9012.63 614.37 o
2511 3 5 2 16 10247.10 9764.34 792.89 o
2511 1 -5 -2 16 10247.10 9764.34 792.89 o
2512 3 -6 -2 16 24509.00 24751.10 582.82 o
2512 2 -2 -6 -16 24509.00 24751.10 582.82 o
2512 1 6 2 16 24509.00 24751.10 582.82 o
2513 3 6 2 16 24533.50 28082.40 1003.61 o
2513 2 2 6 -16 24533.50 28082.40 1003.61 o
2513 1 -6 -2 16 24533.50 28082.40 1003.61 o
2514 3 -7 -2 16 447.14 189.91 514.37 <
2514 1 7 2 16 447.14 189.91 514.37 <
2515 3 7 2 16 450.73 640.93 799.15 <
2515 1 -7 -2 16 450.73 640.93 799.15 <
2516 3 -8 -2 16 174.65 -181.99 514.32 <
2516 2 -2 -8 -16 174.65 -181.99 514.32 <
2516 1 8 2 16 174.65 -181.99 514.32 <
2517 3 -9 -2 16 209.43 340.25 435.18 <
2517 1 9 2 16 209.43 340.25 435.18 <
2518 3 9 -4 16 251.95 1202.74 806.82 <
2518 1 -9 4 16 251.95 1202.74 806.82 <
2519 3 -9 4 16 253.41 553.89 482.60 <
2519 1 9 -4 16 253.41 553.89 482.60 <
2520 3 8 -4 16 4740.83 3315.44 840.47 o
2520 2 -4 8 -16 4740.83 3315.44 840.47 o
2520 1 -8 4 16 4740.83 3315.44 840.47 o
2521 3 -8 4 16 4743.77 4518.18 522.77 o
2521 2 4 -8 -16 4743.77 4518.18 522.77 o
2521 1 8 -4 16 4743.77 4518.18 522.77 o
2522 3 7 -4 16 711.16 1788.28 822.43 o
2522 1 -7 4 16 711.16 1788.28 822.43 o
2523 3 -7 4 16 706.49 87.04 506.51 <
2523 1 7 -4 16 706.49 87.04 506.51 <
2524 3 6 -4 16 274.33 989.09 664.46 <
2524 2 -4 6 -16 274.33 989.09 664.46 <
2524 1 -6 4 16 274.33 989.09 664.46 <
2525 3 -6 4 16 270.10 1724.98 473.75 o
2525 2 4 -6 -16 270.10 1724.98 473.75 o
2525 1 6 -4 16 270.10 1724.98 473.75 o
2526 3 5 -4 16 1404.49 617.20 791.51 <
2526 1 -5 4 16 1404.49 617.20 791.51 <
2527 3 -5 4 16 1404.00 775.45 498.83 <
2527 1 5 -4 16 1404.00 775.45 498.83 <
2528 3 4 -4 16 34207.70 32837.90 931.03 o
2528 2 -4 4 -16 34207.70 32837.90 931.03 o
2528 1 -4 4 16 34207.70 32837.90 931.03 o
2529 3 -4 4 16 34156.20 30464.10 629.34 o
2529 2 4 -4 -16 34156.20 30464.10 629.34 o
2529 1 4 -4 16 34156.20 30464.10 629.34 o
2530 3 3 -4 16 7143.70 5475.63 778.90 o
2530 1 -3 4 16 7143.70 5475.63 778.90 o
2531 3 -3 4 16 7144.87 6203.60 517.50 o
2531 1 3 -4 16 7144.87 6203.60 517.50 o
2532 3 2 -4 16 5324.06 5143.29 815.32 o
2532 2 -4 2 -16 5324.06 5143.29 815.32 o
2532 1 -2 4 16 5324.06 5143.29 815.32 o
2533 3 -2 4 16 5346.62 5428.15 506.18 o
2533 2 4 -2 -16 5346.62 5428.15 506.18 o
2533 1 2 -4 16 5346.62 5428.15 506.18 o
2534 3 1 -4 16 4972.31 5349.02 846.04 o
2534 1 -1 4 16 4972.31 5349.02 846.04 o
2535 3 -1 4 16 4975.08 4716.00 562.40 o
2535 1 1 -4 16 4975.08 4716.00 562.40 o
2536 3 0 -4 16 58958.50 62360.40 1031.54 o
2536 2 -4 0 -16 58958.50 62360.40 1031.54 o
2536 1 0 4 16 58958.50 62360.40 1031.54 o
2537 3 0 4 16 58943.50 58174.60 907.44 o
2537 2 4 0 -16 58943.50 58174.60 907.44 o
2537 1 0 -4 16 58943.50 58174.60 907.44 o
2538 3 -1 -4 16 4972.32 4668.53 862.94 o
2538 1 1 4 16 4972.32 4668.53 862.94 o
2539 3 1 4 16 4975.08 5784.22 861.11 o
2539 1 -1 -4 16 4975.08 5784.22 861.11 o
2540 3 -2 -4 16 5340.90 5467.71 862.28 o
2540 2 -4 -2 -16 5340.90 5467.71 862.28 o
2540 1 2 4 16 5340.90 5467.71 862.28 o
2541 3 2 4 16 5329.76 5372.76 807.03 o
2541 2 4 2 -16 5329.76 5372.76 807.03 o
2541 1 -2 -4 16 5329.76 5372.76 807.03 o
2542 3 -3 -4 16 7143.70 5396.50 857.83 o
2542 1 3 4 16 7143.70 5396.50 857.83 o
2543 3 3 4 16 7144.85 7849.45 940.10 o
2543 1 -3 -4 16 7144.85 7849.45 940.10 o
2544 3 -4 -4 16 34120.10 35053.50 996.28 o
2544 2 -4 -4 -16 34120.10 35053.50 996.28 o
2544 1 4 4 16 34120.10 35053.50 996.28 o
2545 3 4 4 16 34243.80 37522.30 980.88 o
2545 2 4 4 -16 34243.80 37522.30 980.88 o
2545 1 -4 -4 16 34243.80 37522.30 980.88 o
2546 3 -5 -4 16 1404.49 822.93 712.37 <
2546 1 5 4 16 1404.49 822.93 712.37 <
2547 3 5 4 16 1403.99 704.23 838.96 <
2547 1 -5 -4 16 1403.99 704.23 838.96 <
2548 3 -6 -4 16 265.54 39.56 569.73 <
2548 2 -4 -6 -16 265.54 39.56 569.73 <
2548 1 6 4 16 265.54 39.56 569.73 <
2549 3 6 4 16 278.90 909.97 799.04 <
2549 2 4 6 -16 278.90 909.97 799.04 <
2549 1 -6 -4 16 278.90 909.97 799.04 <
2550 3 -7 -4 16 711.16 902.05 601.30 <
2550 1 7 4 16 711.16 902.05 601.30 <
2551 3 7 4 16 706.49 1329.34 862.27 <
2551 1 -7 -4 16 706.49 1329.34 862.27 <
2552 3 -8 -4 16 4743.82 4985.04 592.92 o
2552 2 -4 -8 -16 4743.82 4985.04 592.92 o
2552 1 8 4 16 4743.82 4985.04 592.92 o
2553 3 8 4 16 4740.79 6346.03 907.23 o
2553 2 4 8 -16 4740.79 6346.03 907.23 o
2553 1 -8 -4 16 4740.79 6346.03 907.23 o
2554 3 -9 -4 16 251.95 348.16 569.70 <
2554 1 9 4 16 251.95 348.16 569.70 <
2555 3 8 -6 16 9.60 648.85 846.58 <
2555 2 -6 8 -16 9.60 648.85 846.58 <
2555 1 -8 6 16 9.60 648.85 846.58 <
2556 3 -8 6 16 8.33 625.11 506.28 <
2556 2 6 -8 -16 8.33 625.11 506.28 <
2556 1 8 -6 16 8.33 625.11 506.28 <
2557 3 7 -6 16 459.79 807.10 783.28 <
2557 1 -7 6 16 459.79 807.10 783.28 <
2558 3 -7 6 16 461.36 316.51 490.62 <
2558 1 7 -6 16 461.36 316.51 490.62 <
2559 3 6 -6 16 7117.91 5681.36 873.11 o
2559 2 -6 6 -16 7117.91 5681.36 873.11 o
2559 1 -6 6 16 7117.91 5681.36 873.11 o
2560 3 -6 6 16 7118.44 6164.04 501.80 o
2560 2 6 -6 -16 7118.44 6164.04 501.80 o
2560 1 6 -6 16 7118.44 6164.04 501.80 o
2561 3 5 -6 16 629.19 545.98 767.55 <
2561 1 -5 6 16 629.19 545.98 767.55 <
2562 3 -5 6 16 628.78 -276.95 585.55 <
2562 1 5 -6 16 628.78 -276.95 585.55 <
2563 3 4 -6 16 232.80 1630.03 584.80 o
2563 2 -6 4 -16 232.80 1630.03 584.80 o
2563 1 -4 6 16 232.80 1630.03 584.80 o
2564 3 -4 6 16 225.36 498.50 569.67 <
2564 2 6 -4 -16 225.36 498.50 569.67 <
2564 1 4 -6 16 225.36 498.50 569.67 <
2565 3 3 -6 16 1762.36 2911.89 560.42 o
2565 1 -3 6 16 1762.36 2911.89 560.42 o
2566 3 -3 6 16 1767.60 2729.90 624.12 o
2566 1 3 -6 16 1767.60 2729.90 624.12 o
2567 3 2 -6 16 26624.70 22907.40 798.11 o
2567 2 -6 2 -16 26624.70 22907.40 798.11 o
2567 1 -2 6 16 26624.70 22907.40 798.11 o
2568 3 -2 6 16 26592.70 26523.60 744.46 o
2568 2 6 -2 -16 26592.70 26523.60 744.46 o
2568 1 2 -6 16 26592.70 26523.60 744.46 o
2569 3 1 -6 16 2620.28 2619.12 680.50 o
2569 1 -1 6 16 2620.28 2619.12 680.50 o
2570 3 -1 6 16 2611.31 1970.28 617.80 o
2570 1 1 -6 16 2611.31 1970.28 617.80 o
2571 3 0 -6 16 765.55 1123.61 680.36 <
2571 2 -6 0 -16 765.55 1123.61 680.36 <
2571 1 0 6 16 765.55 1123.61 680.36 <
2572 3 0 6 16 771.67 506.42 680.56 <
2572 2 6 0 -16 771.67 506.42 680.56 <
2572 1 0 -6 16 771.67 506.42 680.56 <
2573 3 -1 -6 16 2620.29 2215.57 894.42 o
2573 1 1 6 16 2620.29 2215.57 894.42 o
2574 3 1 6 16 2611.30 2785.29 854.43 o
2574 1 -1 -6 16 2611.30 2785.29 854.43 o
2575 3 -2 -6 16 26588.80 25471.20 1012.56 o
2575 2 -6 -2 -16 26588.80 25471.20 1012.56 o
2575 1 2 6 16 26588.80 25471.20 1012.56 o
2576 3 2 6 16 26628.70 28842.00 972.18 o
2576 2 6 2 -16 26628.70 28842.00 972.18 o
2576 1 -2 -6 16 26628.70 28842.00 972.18 o
2577 3 -3 -6 16 1762.37 2975.20 877.37 o
2577 1 3 6 16 1762.37 2975.20 877.37 o
2578 3 3 6 16 1767.60 2706.16 845.96 o
2578 1 -3 -6 16 1767.60 2706.16 845.96 o
2579 3 -4 -6 16 221.74 -174.08 870.40 <
2579 2 -6 -4 -16 221.74 -174.08 870.40 <
2579 1 4 6 16 221.74 -174.08 870.40 <
2580 3 4 6 16 236.43 -332.34 838.73 <
2580 2 6 4 -16 236.43 -332.34 838.73 <
2580 1 -4 -6 16 236.43 -332.34 838.73 <
2581 3 -5 -6 16 629.19 245.29 894.18 <
2581 1 5 6 16 629.19 245.29 894.18 <
2582 3 5 6 16 628.77 1384.73 909.72 <
2582 1 -5 -6 16 628.77 1384.73 909.72 <
2583 3 -6 -6 16 7118.82 5744.66 754.73 o
2583 2 -6 -6 -16 7118.82 5744.66 754.73 o
2583 1 6 6 16 7118.82 5744.66 754.73 o
2584 3 6 6 16 7117.54 6108.65 919.77 o
2584 2 6 6 -16 7117.54 6108.65 919.77 o
2584 1 -6 -6 16 7117.54 6108.65 919.77 o
2585 3 -7 -6 16 459.79 593.46 727.95 <
2585 1 7 6 16 459.79 593.46 727.95 <
2586 3 7 6 16 461.36 838.75 870.32 <
2586 1 -7 -6 16 461.36 838.75 870.32 <
2587 3 -8 -6 16 7.99 751.71 704.09 <
2587 2 -6 -8 -16 7.99 751.71 704.09 <
2587 1 8 6 16 7.99 751.71 704.09 <
2588 3 8 6 16 9.94 514.33 902.00 <
2588 2 6 8 -16 9.94 514.33 902.00 <
2588 1 -8 -6 16 9.94 514.33 902.00 <
2589 3 6 -8 16 8.80 1297.69 775.07 <
2589 2 -8 6 -16 8.80 1297.69 775.07 <
2589 1 -6 8 16 8.80 1297.69 775.07 <
2590 3 -6 8 16 8.62 522.24 601.29 <
2590 2 8 -6 -16 8.62 522.24 601.29 <
2590 1 6 -8 16 8.62 522.24 601.29 <
2591 3 5 -8 16 380.16 1099.87 648.59 <
2591 1 -5 8 16 380.16 1099.87 648.59 <
2592 3 -5 8 16 380.12 31.65 601.39 <
2592 1 5 -8 16 380.12 31.65 601.39 <
2593 3 4 -8 16 5254.17 4043.42 643.17 o
2593 2 -8 4 -16 5254.17 4043.42 643.17 o
2593 1 -4 8 16 5254.17 4043.42 643.17 o
2594 3 -4 8 16 5253.03 4660.61 673.72 o
2594 2 8 -4 -16 5253.03 4660.61 673.72 o
2594 1 4 -8 16 5253.03 4660.61 673.72 o
2595 3 3 -8 16 353.72 1099.87 609.00 <
2595 1 -3 8 16 353.72 1099.87 609.00 <
2596 3 -3 8 16 351.50 530.16 625.07 <
2596 1 3 -8 16 351.50 530.16 625.07 <
2597 3 2 -8 16 138.53 174.08 680.49 <
2597 2 -8 2 -16 138.53 174.08 680.49 <
2597 1 -2 8 16 138.53 174.08 680.49 <
2598 3 -2 8 16 135.73 229.47 569.71 <
2598 2 8 -2 -16 135.73 229.47 569.71 <
2598 1 2 -8 16 135.73 229.47 569.71 <
2599 3 1 -8 16 701.32 1384.73 703.94 <
2599 1 -1 8 16 701.32 1384.73 703.94 <
2600 3 -1 8 16 704.85 965.36 640.84 <
2600 1 1 -8 16 704.85 965.36 640.84 <
2601 3 0 -8 16 10550.90 9685.21 809.95 o
2601 2 -8 0 -16 10550.90 9685.21 809.95 o
2601 1 0 8 16 10550.90 9685.21 809.95 o
2602 3 0 8 16 10552.10 11608.00 747.48 o
2602 2 8 0 -16 10552.10 11608.00 747.48 o
2602 1 0 -8 16 10552.10 11608.00 747.48 o
2603 3 -1 -8 16 701.32 1448.03 790.97 <
2603 1 1 8 16 701.32 1448.03 790.97 <
2604 3 1 8 16 704.85 -79.13 735.94 <
2604 1 -1 -8 16 704.85 -79.13 735.94 <
2605 3 -2 -8 16 133.97 197.82 886.22 <
2605 2 -8 -2 -16 133.97 197.82 886.22 <
2605 1 2 8 16 133.97 197.82 886.22 <
2606 3 2 8 16 140.29 213.64 791.27 <
2606 2 8 2 -16 140.29 213.64 791.27 <
2606 1 -2 -8 16 140.29 213.64 791.27 <
2607 3 -3 -8 16 353.72 -110.78 1028.66 <
2607 1 3 8 16 353.72 -110.78 1028.66 <
2608 3 3 8 16 351.50 -237.38 949.52 <
2608 1 -3 -8 16 351.50 -237.38 949.52 <
2609 3 -4 -8 16 5254.26 6876.18 938.70 o
2609 2 -8 -4 -16 5254.26 6876.18 938.70 o
2609 1 4 8 16 5254.26 6876.18 938.70 o
2610 3 4 8 16 5252.93 6971.14 914.68 o
2610 2 8 4 -16 5252.93 6971.14 914.68 o
2610 1 -4 -8 16 5252.93 6971.14 914.68 o
2611 3 -5 -8 16 380.16 2057.32 909.23 o
2611 1 5 8 16 380.16 2057.32 909.23 o
2612 3 5 8 16 380.11 680.50 917.83 <
2612 1 -5 -8 16 380.11 680.50 917.83 <
2613 3 -6 -8 16 7.96 712.15 965.26 <
2613 2 -8 -6 -16 7.96 712.15 965.26 <
2613 1 6 8 16 7.96 712.15 965.26 <
2614 3 6 8 16 9.46 411.46 862.46 <
2614 2 8 6 -16 9.46 411.46 862.46 <
2614 1 -6 -8 16 9.46 411.46 862.46 <
2615 3 1 -10 16 111.05 332.34 759.60 <
2615 1 -1 10 16 111.05 332.34 759.60 <
2616 3 -1 10 16 110.57 1099.87 743.53 <
2616 1 1 -10 16 110.57 1099.87 743.53 <
2617 3 0 -10 16 64.72 1234.39 790.94 <
2617 2 -10 0 -16 64.72 1234.39 790.94 <
2617 1 0 10 16 64.72 1234.39 790.94 <
2618 3 0 10 16 65.36 1044.48 759.38 <
2618 2 10 0 -16 65.36 1044.48 759.38 <
2618 1 0 -10 16 65.36 1044.48 759.38 <
2619 3 -1 -10 16 111.05 1487.60 838.30 <
2619 1 1 10 16 111.05 1487.60 838.30 <
2620 3 1 10 16 110.57 862.49 751.55 <
2620 1 -1 -10 16 110.57 862.49 751.55 <
2621 3 9 -1 17 710.19 1107.79 799.06 <
2621 2 -1 9 -17 710.19 1107.79 799.06 <
2621 1 -9 1 17 710.19 1107.79 799.06 <
2622 3 -9 1 17 712.37 1353.08 498.11 o
2622 2 1 -9 -17 712.37 1353.08 498.11 o
2622 1 9 -1 17 712.37 1353.08 498.11 o
2623 3 8 -1 17 39.94 989.09 759.40 <
2623 1 -8 1 17 39.94 989.09 759.40 <
2624 3 -8 1 17 39.79 -71.21 474.76 <
2624 1 8 -1 17 39.79 -71.21 474.76 <
2625 3 7 -1 17 2754.55 3022.67 791.01 o
2625 2 -1 7 -17 2754.55 3022.67 791.01 o
2625 1 -7 1 17 2754.55 3022.67 791.01 o
2626 3 -7 1 17 2762.69 3750.65 496.69 o
2626 2 1 -7 -17 2762.69 3750.65 496.69 o
2626 1 7 -1 17 2762.69 3750.65 496.69 o
2627 3 6 -1 17 14.06 -530.16 688.34 <
2627 1 -6 1 17 14.06 -530.16 688.34 <
2628 3 -6 1 17 13.42 403.55 466.79 <
2628 1 6 -1 17 13.42 403.55 466.79 <
2629 3 5 -1 17 1734.57 2144.36 735.59 o
2629 2 -1 5 -17 1734.57 2144.36 735.59 o
2629 1 -5 1 17 1734.57 2144.36 735.59 o
2630 3 -5 1 17 1745.31 1677.50 498.57 o
2630 2 1 -5 -17 1745.31 1677.50 498.57 o
2630 1 5 -1 17 1745.31 1677.50 498.57 o
2631 3 4 -1 17 78.27 466.85 767.49 <
2631 1 -4 1 17 78.27 466.85 767.49 <
2632 3 -4 1 17 76.07 284.86 601.35 <
2632 1 4 -1 17 76.07 284.86 601.35 <
2633 3 3 -1 17 1568.95 1416.38 577.73 o
2633 2 -1 3 -17 1568.95 1416.38 577.73 o
2633 1 -3 1 17 1568.95 1416.38 577.73 o
2634 3 -3 1 17 1596.88 2381.74 616.48 o
2634 2 1 -3 -17 1596.88 2381.74 616.48 o
2634 1 3 -1 17 1596.88 2381.74 616.48 o
2635 3 2 -1 17 23.21 506.42 656.69 <
2635 1 -2 1 17 23.21 506.42 656.69 <
2636 3 -2 1 17 24.36 -15.83 775.45 <
2636 1 2 -1 17 24.36 -15.83 775.45 <
2637 3 1 -1 17 35563.40 35567.80 941.57 o
2637 2 -1 1 -17 35563.40 35567.80 941.57 o
2637 1 -1 1 17 35563.40 35567.80 941.57 o
2638 3 -1 1 17 35633.70 35488.70 943.08 o
2638 2 1 -1 -17 35633.70 35488.70 943.08 o
2638 1 1 -1 17 35633.70 35488.70 943.08 o
2639 3 -1 -1 17 35683.20 34341.40 954.75 o
2639 2 -1 -1 -17 35683.20 34341.40 954.75 o
2639 1 1 1 17 35683.20 34341.40 954.75 o
2640 3 1 1 17 35513.90 36596.50 1018.44 o
2640 2 1 1 -17 35513.90 36596.50 1018.44 o
2640 1 -1 -1 17 35513.90 36596.50 1018.44 o
2641 3 -2 -1 17 23.21 379.81 775.42 <
2641 1 2 1 17 23.21 379.81 775.42 <
2642 3 2 1 17 24.36 902.05 704.03 <
2642 1 -2 -1 17 24.36 902.05 704.03 <
2643 3 -3 -1 17 1590.11 1732.89 688.32 o
2643 2 -1 -3 -17 1590.11 1732.89 688.32 o
2643 1 3 1 17 1590.11 1732.89 688.32 o
2644 3 3 1 17 1575.71 1938.62 648.58 o
2644 2 1 3 -17 1575.71 1938.62 648.58 o
2644 1 -3 -1 17 1575.71 1938.62 648.58 o
2645 3 -4 -1 17 78.27 427.29 696.28 <
2645 1 4 1 17 78.27 427.29 696.28 <
2646 3 4 1 17 76.07 601.37 617.10 <
2646 1 -4 -1 17 76.07 601.37 617.10 <
2647 3 -5 -1 17 1743.41 1416.38 656.96 o
2647 2 -1 -5 -17 1743.41 1416.38 656.96 o
2647 1 5 1 17 1743.41 1416.38 656.96 o
2648 3 5 1 17 1736.46 1028.66 585.95 <
2648 2 1 5 -17 1736.46 1028.66 585.95 <
2648 1 -5 -1 17 1736.46 1028.66 585.95 <
2649 3 -6 -1 17 14.06 -538.07 664.59 <
2649 1 6 1 17 14.06 -538.07 664.59 <
2650 3 6 1 17 13.42 822.93 569.51 <
2650 1 -6 -1 17 13.42 822.93 569.51 <
2651 3 -7 -1 17 2759.91 3639.87 496.93 o
2651 2 -1 -7 -17 2759.91 3639.87 496.93 o
2651 1 7 1 17 2759.91 3639.87 496.93 o
2652 3 -8 -1 17 39.94 577.63 395.49 <
2652 1 8 1 17 39.94 577.63 395.49 <
2653 3 -9 -1 17 711.39 2112.71 441.72 o
2653 2 -1 -9 -17 711.39 2112.71 441.72 o
2653 1 9 1 17 711.39 2112.71 441.72 o
2654 3 9 -3 17 725.88 1788.28 838.27 o
2654 2 -3 9 -17 725.88 1788.28 838.27 o
2654 1 -9 3 17 725.88 1788.28 838.27 o
2655 3 -9 3 17 728.16 47.48 498.60 <
2655 2 3 -9 -17 728.16 47.48 498.60 <
2655 1 9 -3 17 728.16 47.48 498.60 <
2656 3 8 -3 17 37.50 -775.45 743.65 <
2656 1 -8 3 17 37.50 -775.45 743.65 <
2657 3 -8 3 17 37.27 759.63 506.22 <
2657 1 8 -3 17 37.27 759.63 506.22 <
2658 3 7 -3 17 846.86 1084.05 814.94 <
2658 2 -3 7 -17 846.86 1084.05 814.94 <
2658 1 -7 3 17 846.86 1084.05 814.94 <
2659 3 -7 3 17 855.80 1099.87 482.54 o
2659 2 3 -7 -17 855.80 1099.87 482.54 o
2659 1 7 -3 17 855.80 1099.87 482.54 o
2660 3 6 -3 17 195.61 -23.74 735.89 <
2660 1 -6 3 17 195.61 -23.74 735.89 <
2661 3 -6 3 17 194.39 371.90 443.08 <
2661 1 6 -3 17 194.39 371.90 443.08 <
2662 3 5 -3 17 2613.30 2729.90 775.34 o
2662 2 -3 5 -17 2613.30 2729.90 775.34 o
2662 1 -5 3 17 2613.30 2729.90 775.34 o
2663 3 -5 3 17 2629.53 2991.02 482.10 o
2663 2 3 -5 -17 2629.53 2991.02 482.10 o
2663 1 5 -3 17 2629.53 2991.02 482.10 o
2664 3 4 -3 17 40.82 -23.74 743.80 <
2664 1 -4 3 17 40.82 -23.74 743.80 <
2665 3 -4 3 17 39.43 561.81 466.74 <
2665 1 4 -3 17 39.43 561.81 466.74 <
2666 3 3 -3 17 103.46 0.00 830.84 <
2666 2 -3 3 -17 103.46 0.00 830.84 <
2666 1 -3 3 17 103.46 0.00 830.84 <
2667 3 -3 3 17 95.56 356.07 553.86 <
2667 2 3 -3 -17 95.56 356.07 553.86 <
2667 1 3 -3 17 95.56 356.07 553.86 <
2668 3 2 -3 17 55.28 -261.12 791.26 <
2668 1 -2 3 17 55.28 -261.12 791.26 <
2669 3 -2 3 17 55.24 292.77 466.82 <
2669 1 2 -3 17 55.24 292.77 466.82 <
2670 3 1 -3 17 1395.38 1226.48 759.70 <
2670 2 -3 1 -17 1395.38 1226.48 759.70 <
2670 1 -1 3 17 1395.38 1226.48 759.70 <
2671 3 -1 3 17 1370.19 1780.37 537.73 o
2671 2 3 -1 -17 1370.19 1780.37 537.73 o
2671 1 1 -3 17 1370.19 1780.37 537.73 o
2672 3 -1 -3 17 1378.92 1432.21 822.90 <
2672 2 -3 -1 -17 1378.92 1432.21 822.90 <
2672 1 1 3 17 1378.92 1432.21 822.90 <
2673 3 1 3 17 1386.64 1978.19 830.50 o
2673 2 3 1 -17 1386.64 1978.19 830.50 o
2673 1 -1 -3 17 1386.64 1978.19 830.50 o
2674 3 -2 -3 17 55.28 -451.03 807.05 <
2674 1 2 3 17 55.28 -451.03 807.05 <
2675 3 2 3 17 55.24 -712.15 822.81 <
2675 1 -2 -3 17 55.24 -712.15 822.81 <
2676 3 -3 -3 17 90.02 545.98 822.87 <
2676 2 -3 -3 -17 90.02 545.98 822.87 <
2676 1 3 3 17 90.02 545.98 822.87 <
2677 3 3 3 17 109.00 767.54 838.64 <
2677 2 3 3 -17 109.00 767.54 838.64 <
2677 1 -3 -3 17 109.00 767.54 838.64 <
2678 3 -4 -3 17 40.83 371.90 735.85 <
2678 1 4 3 17 40.83 371.90 735.85 <
2679 3 4 3 17 39.43 332.34 759.60 <
2679 1 -4 -3 17 39.43 332.34 759.60 <
2680 3 -5 -3 17 2634.28 2785.29 624.93 o
2680 2 -3 -5 -17 2634.28 2785.29 624.93 o
2680 1 5 3 17 2634.28 2785.29 624.93 o
2681 3 5 3 17 2608.56 3149.28 901.58 o
2681 2 3 5 -17 2608.56 3149.28 901.58 o
2681 1 -5 -3 17 2608.56 3149.28 901.58 o
2682 3 -6 -3 17 195.62 482.68 585.49 <
2682 1 6 3 17 195.62 482.68 585.49 <
2683 3 6 3 17 194.39 -356.07 814.98 <
2683 1 -6 -3 17 194.39 -356.07 814.98 <
2684 3 -7 -3 17 852.12 672.58 569.78 <
2684 2 -3 -7 -17 852.12 672.58 569.78 <
2684 1 7 3 17 852.12 672.58 569.78 <
2685 3 7 3 17 850.54 1360.99 893.96 <
2685 2 3 7 -17 850.54 1360.99 893.96 <
2685 1 -7 -3 17 850.54 1360.99 893.96 <
2686 3 -8 -3 17 37.50 593.46 537.96 <
2686 1 8 3 17 37.50 593.46 537.96 <
2687 3 8 3 17 37.27 23.74 838.75 <
2687 1 -8 -3 17 37.27 23.74 838.75 <
2688 3 -9 -3 17 727.15 1194.83 458.66 o
2688 2 -3 -9 -17 727.15 1194.83 458.66 o
2688 1 9 3 17 727.15 1194.83 458.66 o
2689 3 8 -5 17 140.20 767.54 806.98 <
2689 1 -8 5 17 140.20 767.54 806.98 <
2690 3 -8 5 17 140.01 1084.05 506.03 o
2690 1 8 -5 17 140.01 1084.05 506.03 o
2691 3 7 -5 17 1269.12 1060.31 759.71 <
2691 2 -5 7 -17 1269.12 1060.31 759.71 <
2691 1 -7 5 17 1269.12 1060.31 759.71 <
2692 3 -7 5 17 1270.30 1036.57 506.55 o
2692 2 5 -7 -17 1270.30 1036.57 506.55 o
2692 1 7 -5 17 1270.30 1036.57 506.55 o
2693 3 6 -5 17 88.99 -712.15 822.81 <
2693 1 -6 5 17 88.99 -712.15 822.81 <
2694 3 -6 5 17 88.35 134.52 458.94 <
2694 1 6 -5 17 88.35 134.52 458.94 <
2695 3 5 -5 17 524.06 1416.38 783.02 <
2695 2 -5 5 -17 524.06 1416.38 783.02 <
2695 1 -5 5 17 524.06 1416.38 783.02 <
2696 3 -5 5 17 525.38 213.64 482.73 <
2696 2 5 -5 -17 525.38 213.64 482.73 <
2696 1 5 -5 17 525.38 213.64 482.73 <
2697 3 4 -5 17 193.25 712.15 775.35 <
2697 1 -4 5 17 193.25 712.15 775.35 <
2698 3 -4 5 17 193.01 63.30 435.21 <
2698 1 4 -5 17 193.01 63.30 435.21 <
2699 3 3 -5 17 2931.01 2785.29 846.79 o
2699 2 -5 3 -17 2931.01 2785.29 846.79 o
2699 1 -3 5 17 2931.01 2785.29 846.79 o
2700 3 -3 5 17 2933.89 2935.63 466.85 o
2700 2 5 -3 -17 2933.89 2935.63 466.85 o
2700 1 3 -5 17 2933.89 2935.63 466.85 o
2701 3 2 -5 17 26.47 1020.75 846.45 <
2701 1 -2 5 17 26.47 1020.75 846.45 <
2702 3 -2 5 17 26.60 870.40 514.07 <
2702 1 2 -5 17 26.60 870.40 514.07 <
2703 3 1 -5 17 2291.63 1535.07 760.10 o
2703 2 -5 1 -17 2291.63 1535.07 760.10 o
2703 1 -1 5 17 2291.63 1535.07 760.10 o
2704 3 -1 5 17 2283.37 2081.05 569.92 o
2704 2 5 -1 -17 2283.37 2081.05 569.92 o
2704 1 1 -5 17 2283.37 2081.05 569.92 o
2705 3 -1 -5 17 2287.02 1424.30 823.41 <
2705 2 -5 -1 -17 2287.02 1424.30 823.41 <
2705 1 1 5 17 2287.02 1424.30 823.41 <
2706 3 1 5 17 2287.98 2500.43 838.59 o
2706 2 5 1 -17 2287.98 2500.43 838.59 o
2706 1 -1 -5 17 2287.98 2500.43 838.59 o
2707 3 -2 -5 17 26.47 878.32 846.51 <
2707 1 2 5 17 26.47 878.32 846.51 <
2708 3 2 5 17 26.60 87.04 830.84 <
2708 1 -2 -5 17 26.60 87.04 830.84 <
2709 3 -3 -5 17 2942.51 3165.10 830.62 o
2709 2 -5 -3 -17 2942.51 3165.10 830.62 o
2709 1 3 5 17 2942.51 3165.10 830.62 o
2710 3 3 5 17 2922.39 2278.87 886.71 o
2710 2 5 3 -17 2922.39 2278.87 886.71 o
2710 1 -3 -5 17 2922.39 2278.87 886.71 o
2711 3 -4 -5 17 193.25 727.97 870.31 <
2711 1 4 5 17 193.25 727.97 870.31 <
2712 3 4 5 17 193.01 1653.77 838.21 <
2712 1 -4 -5 17 193.01 1653.77 838.21 <
2713 3 -5 -5 17 526.30 39.56 1060.33 <
2713 2 -5 -5 -17 526.30 39.56 1060.33 <
2713 1 5 5 17 526.30 39.56 1060.33 <
2714 3 5 5 17 523.14 1542.99 790.86 <
2714 2 5 5 -17 523.14 1542.99 790.86 <
2714 1 -5 -5 17 523.14 1542.99 790.86 <
2715 3 -6 -5 17 88.99 253.21 704.22 <
2715 1 6 5 17 88.99 253.21 704.22 <
2716 3 6 5 17 88.36 -1329.34 775.03 <
2716 1 -6 -5 17 88.36 -1329.34 775.03 <
2717 3 -7 -5 17 1268.41 799.19 696.49 <
2717 2 -5 -7 -17 1268.41 799.19 696.49 <
2717 1 7 5 17 1268.41 799.19 696.49 <
2718 3 7 5 17 1271.01 1471.77 894.06 <
2718 2 5 7 -17 1271.01 1471.77 894.06 <
2718 1 -7 -5 17 1271.01 1471.77 894.06 <
2719 3 -8 -5 17 140.20 451.03 680.46 <
2719 1 8 5 17 140.20 451.03 680.46 <
2720 3 8 5 17 140.01 735.89 751.60 <
2720 1 -8 -5 17 140.01 735.89 751.60 <
2721 3 7 -7 17 139.88 1084.05 791.03 <
2721 2 -7 7 -17 139.88 1084.05 791.03 <
2721 1 -7 7 17 139.88 1084.05 791.03 <
2722 3 -7 7 17 140.49 253.21 538.05 <
2722 2 7 -7 -17 140.49 253.21 538.05 <
2722 1 7 -7 17 140.49 253.21 538.05 <
2723 3 6 -7 17 126.31 1012.83 791.06 <
2723 1 -6 7 17 126.31 1012.83 791.06 <
2724 3 -6 7 17 126.14 -490.59 514.24 <
2724 1 6 -7 17 126.14 -490.59 514.24 <
2725 3 5 -7 17 1382.02 443.11 854.80 <
2725 2 -7 5 -17 1382.02 443.11 854.80 <
2725 1 -5 7 17 1382.02 443.11 854.80 <
2726 3 -5 7 17 1377.75 1060.31 593.62 <
2726 2 7 -5 -17 1377.75 1060.31 593.62 <
2726 1 5 -7 17 1377.75 1060.31 593.62 <
2727 3 4 -7 17 50.40 -102.87 633.02 <
2727 1 -4 7 17 50.40 -102.87 633.02 <
2728 3 -4 7 17 50.41 15.83 569.72 <
2728 1 4 -7 17 50.41 15.83 569.72 <
2729 3 3 -7 17 1110.40 949.53 656.82 <
2729 2 -7 3 -17 1110.40 949.53 656.82 <
2729 1 -3 7 17 1110.40 949.53 656.82 <
2730 3 -3 7 17 1099.32 640.93 546.16 <
2730 2 7 -3 -17 1099.32 640.93 546.16 <
2730 1 3 -7 17 1099.32 640.93 546.16 <
2731 3 2 -7 17 44.95 466.85 617.14 <
2731 1 -2 7 17 44.95 466.85 617.14 <
2732 3 -2 7 17 45.27 197.82 553.88 <
2732 1 2 -7 17 45.27 197.82 553.88 <
2733 3 1 -7 17 3688.11 2413.39 713.50 o
2733 2 -7 1 -17 3688.11 2413.39 713.50 o
2733 1 -1 7 17 3688.11 2413.39 713.50 o
2734 3 -1 7 17 3679.17 3703.17 672.55 o
2734 2 7 -1 -17 3679.17 3703.17 672.55 o
2734 1 1 -7 17 3679.17 3703.17 672.55 o
2735 3 -1 -7 17 3681.36 3426.22 783.67 o
2735 2 -7 -1 -17 3681.36 3426.22 783.67 o
2735 1 1 7 17 3681.36 3426.22 783.67 o
2736 3 1 7 17 3685.92 4288.71 774.60 o
2736 2 7 1 -17 3685.92 4288.71 774.60 o
2736 1 -1 -7 17 3685.92 4288.71 774.60 o
2737 3 -2 -7 17 44.95 648.85 870.32 <
2737 1 2 7 17 44.95 648.85 870.32 <
2738 3 2 7 17 45.27 640.93 822.84 <
2738 1 -2 -7 17 45.27 640.93 822.84 <
2739 3 -3 -7 17 1101.49 1076.13 799.20 <
2739 2 -7 -3 -17 1101.49 1076.13 799.20 <
2739 1 3 7 17 1101.49 1076.13 799.20 <
2740 3 3 7 17 1108.24 1851.58 901.70 o
2740 2 7 3 -17 1108.24 1851.58 901.70 o
2740 1 -3 -7 17 1108.24 1851.58 901.70 o
2741 3 -4 -7 17 50.40 1099.87 893.91 <
2741 1 4 7 17 50.40 1099.87 893.91 <
2742 3 4 7 17 50.41 7.91 878.32 <
2742 1 -4 -7 17 50.41 7.91 878.32 <
2743 3 -5 -7 17 1377.45 490.59 925.99 <
2743 2 -7 -5 -17 1377.45 490.59 925.99 <
2743 1 5 7 17 1377.45 490.59 925.99 <
2744 3 5 7 17 1382.32 799.19 902.22 <
2744 2 7 5 -17 1382.32 799.19 902.22 <
2744 1 -5 -7 17 1382.32 799.19 902.22 <
2745 3 -6 -7 17 126.31 292.77 886.22 <
2745 1 6 7 17 126.31 292.77 886.22 <
2746 3 6 7 17 126.14 894.14 743.62 <
2746 1 -6 -7 17 126.14 894.14 743.62 <
2747 3 -7 -7 17 140.91 458.94 917.85 <
2747 2 -7 -7 -17 140.91 458.94 917.85 <
2747 1 7 7 17 140.91 458.94 917.85 <
2748 3 7 7 17 139.46 1455.95 782.91 <
2748 2 7 7 -17 139.46 1455.95 782.91 <
2748 1 -7 -7 17 139.46 1455.95 782.91 <
2749 3 4 -9 17 38.22 862.49 696.14 <
2749 1 -4 9 17 38.22 862.49 696.14 <
2750 3 -4 9 17 38.27 601.37 632.92 <
2750 1 4 -9 17 38.27 601.37 632.92 <
2751 3 3 -9 17 937.00 1163.17 696.23 <
2751 2 -9 3 -17 937.00 1163.17 696.23 <
2751 1 -3 9 17 937.00 1163.17 696.23 <
2752 3 -3 9 17 934.03 1764.54 624.58 o
2752 2 9 -3 -17 934.03 1764.54 624.58 o
2752 1 3 -9 17 934.03 1764.54 624.58 o
2753 3 2 -9 17 6.48 174.08 609.27 <
2753 1 -2 9 17 6.48 174.08 609.27 <
2754 3 -2 9 17 6.48 680.50 617.06 <
2754 1 2 -9 17 6.48 680.50 617.06 <
2755 3 1 -9 17 1002.98 1186.91 704.16 <
2755 2 -9 1 -17 1002.98 1186.91 704.16 <
2755 1 -1 9 17 1002.98 1186.91 704.16 <
2756 3 -1 9 17 1000.11 2096.88 671.83 o
2756 2 9 -1 -17 1000.11 2096.88 671.83 o
2756 1 1 -9 17 1000.11 2096.88 671.83 o
2757 3 -1 -9 17 1000.60 783.36 854.64 <
2757 2 -9 -1 -17 1000.60 783.36 854.64 <
2757 1 1 9 17 1000.60 783.36 854.64 <
2758 3 1 9 17 1002.49 981.18 791.28 <
2758 2 9 1 -17 1002.49 981.18 791.28 <
2758 1 -1 -9 17 1002.49 981.18 791.28 <
2759 3 -2 -9 17 6.48 181.99 902.05 <
2759 1 2 9 17 6.48 181.99 902.05 <
2760 3 2 9 17 6.48 1147.35 838.47 <
2760 1 -2 -9 17 6.48 1147.35 838.47 <
2761 3 -3 -9 17 934.55 276.95 1155.34 <
2761 2 -9 -3 -17 934.55 276.95 1155.34 <
2761 1 3 9 17 934.55 276.95 1155.34 <
2762 3 3 9 17 936.48 1123.61 870.34 <
2762 2 9 3 -17 936.48 1123.61 870.34 <
2762 1 -3 -9 17 936.48 1123.61 870.34 <
2763 3 -4 -9 17 38.22 601.37 917.81 <
2763 1 4 9 17 38.22 601.37 917.81 <
2764 3 4 9 17 38.27 -237.38 870.39 <
2764 1 -4 -9 17 38.27 -237.38 870.39 <
2765 3 0 0 18 30529.90 28303.90 983.05 o
2765 2 0 0 -18 30529.90 28303.90 983.05 o
2765 1 0 0 18 30529.90 28303.90 983.05 o
2766 3 -1 0 18 981.93 1186.91 743.72 <
2766 1 1 0 18 981.93 1186.91 743.72 <
2767 3 1 0 18 981.93 1139.44 735.82 <
2767 1 -1 0 18 981.93 1139.44 735.82 <
2768 3 -2 0 18 7191.14 8435.00 684.53 o
2768 2 0 -2 -18 7191.14 8435.00 684.53 o
2768 1 2 0 18 7191.14 8435.00 684.53 o
2769 3 2 0 18 7160.43 7976.06 709.79 o
2769 2 0 2 -18 7160.43 7976.06 709.79 o
2769 1 -2 0 18 7160.43 7976.06 709.79 o
2770 3 -3 0 18 4750.11 3600.30 698.07 o
2770 1 3 0 18 4750.11 3600.30 698.07 o
2771 3 3 0 18 4750.11 3481.61 619.33 o
2771 1 -3 0 18 4750.11 3481.61 619.33 o
2772 3 -4 0 18 2301.04 2413.39 656.65 o
2772 2 0 -4 -18 2301.04 2413.39 656.65 o
2772 1 4 0 18 2301.04 2413.39 656.65 o
2773 3 4 0 18 2254.48 2017.75 593.68 o
2773 2 0 4 -18 2254.48 2017.75 593.68 o
2773 1 -4 0 18 2254.48 2017.75 593.68 o
2774 3 -5 0 18 1634.76 1495.51 664.76 o
2774 1 5 0 18 1634.76 1495.51 664.76 o
2775 3 5 0 18 1634.76 1630.03 545.98 o
2775 1 -5 0 18 1634.76 1630.03 545.98 o
2776 3 -6 0 18 476.20 213.64 474.81 <
2776 2 0 -6 -18 476.20 213.64 474.81 <
2776 1 6 0 18 476.20 213.64 474.81 <
2777 3 6 0 18 474.02 348.16 696.34 <
2777 2 0 6 -18 474.02 348.16 696.34 <
2777 1 -6 0 18 474.02 348.16 696.34 <
2778 3 -7 0 18 194.51 94.95 458.95 <
2778 1 7 0 18 194.51 94.95 458.95 <
2779 3 7 0 18 194.51 -696.32 822.81 <
2779 1 -7 0 18 194.51 -696.32 822.81 <
2780 3 -8 0 18 152.30 680.50 482.53 <
2780 2 0 -8 -18 152.30 680.50 482.53 <
2780 1 8 0 18 152.30 680.50 482.53 <
2781 3 8 0 18 148.71 -933.71 798.98 <
2781 2 0 8 -18 148.71 -933.71 798.98 <
2781 1 -8 0 18 148.71 -933.71 798.98 <
2782 3 -9 0 18 21.51 0.00 451.03 <
2782 1 9 0 18 21.51 0.00 451.03 <
2783 3 9 -2 18 79.75 735.89 814.90 <
2783 1 -9 2 18 79.75 735.89 814.90 <
2784 3 -9 2 18 80.16 276.95 498.48 <
2784 1 9 -2 18 80.16 276.95 498.48 <
2785 3 8 -2 18 260.36 1360.99 703.82 <
2785 2 -2 8 -18 260.36 1360.99 703.82 <
2785 1 -8 2 18 260.36 1360.99 703.82 <
2786 3 -8 2 18 259.26 1637.94 473.85 o
2786 2 2 -8 -18 259.26 1637.94 473.85 o
2786 1 8 -2 18 259.26 1637.94 473.85 o
2787 3 7 -2 18 235.88 71.21 735.89 <
2787 1 -7 2 18 235.88 71.21 735.89 <
2788 3 -7 2 18 237.69 419.38 474.73 <
2788 1 7 -2 18 237.69 419.38 474.73 <
2789 3 6 -2 18 288.95 -838.75 727.78 <
2789 2 -2 6 -18 288.95 -838.75 727.78 <
2789 1 -6 2 18 288.95 -838.75 727.78 <
2790 3 -6 2 18 300.12 205.73 482.69 <
2790 2 2 -6 -18 300.12 205.73 482.69 <
2790 1 6 -2 18 300.12 205.73 482.69 <
2791 3 5 -2 18 915.44 720.06 735.94 <
2791 1 -5 2 18 915.44 720.06 735.94 <
2792 3 -5 2 18 923.19 419.38 474.93 <
2792 1 5 -2 18 923.19 419.38 474.93 <
2793 3 4 -2 18 200.15 664.67 767.46 <
2793 2 -2 4 -18 200.15 664.67 767.46 <
2793 1 -4 2 18 200.15 664.67 767.46 <
2794 3 -4 2 18 214.87 656.76 498.38 <
2794 2 2 -4 -18 214.87 656.76 498.38 <
2794 1 4 -2 18 214.87 656.76 498.38 <
2795 3 3 -2 18 1584.08 1455.95 815.08 <
2795 1 -3 2 18 1584.08 1455.95 815.08 <
2796 3 -3 2 18 1601.59 1440.12 490.72 o
2796 1 3 -2 18 1601.59 1440.12 490.72 o
2797 3 2 -2 18 8286.54 9289.57 851.77 o
2797 2 -2 2 -18 8286.54 9289.57 851.77 o
2797 1 -2 2 18 8286.54 9289.57 851.77 o
2798 3 -2 2 18 8312.33 8355.87 553.72 o
2798 2 2 -2 -18 8312.33 8355.87 553.72 o
2798 1 2 -2 18 8312.33 8355.87 553.72 o
2799 3 1 -2 18 902.38 1891.15 846.18 o
2799 1 -1 2 18 902.38 1891.15 846.18 o
2800 3 -1 2 18 914.58 514.33 641.04 <
2800 1 1 -2 18 914.58 514.33 641.04 <
2801 3 0 -2 18 7634.97 8379.61 749.56 o
2801 2 -2 0 -18 7634.97 8379.61 749.56 o
2801 1 0 2 18 7634.97 8379.61 749.56 o
2802 3 0 2 18 7622.34 8490.39 749.18 o
2802 2 2 0 -18 7622.34 8490.39 749.18 o
2802 1 0 -2 18 7622.34 8490.39 749.18 o
2803 3 -1 -2 18 902.37 973.27 807.08 <
2803 1 1 2 18 902.37 973.27 807.08 <
2804 3 1 2 18 914.59 767.54 783.40 <
2804 1 -1 -2 18 914.59 767.54 783.40 <
2805 3 -2 -2 18 8330.33 8696.12 1035.76 o
2805 2 -2 -2 -18 8330.33 8696.12 1035.76 o
2805 1 2 2 18 8330.33 8696.12 1035.76 o
2806 3 2 2 18 8268.54 8221.35 941.73 o
2806 2 2 2 -18 8268.54 8221.35 941.73 o
2806 1 -2 -2 18 8268.54 8221.35 941.73 o
2807 3 -3 -2 18 1584.08 1645.85 759.59 o
2807 1 3 2 18 1584.08 1645.85 759.59 o
2808 3 3 2 18 1601.60 1906.97 704.03 o
2808 1 -3 -2 18 1601.60 1906.97 704.03 o
2809 3 -4 -2 18 215.70 63.30 735.89 <
2809 2 -2 -4 -18 215.70 63.30 735.89 <
2809 1 4 2 18 215.70 63.30 735.89 <
2810 3 4 2 18 199.32 71.21 799.19 <
2810 2 2 4 -18 199.32 71.21 799.19 <
2810 1 -4 -2 18 199.32 71.21 799.19 <
2811 3 -5 -2 18 915.44 973.27 530.13 <
2811 1 5 2 18 915.44 973.27 530.13 <
2812 3 5 2 18 923.19 -181.99 846.73 <
2812 1 -5 -2 18 923.19 -181.99 846.73 <
2813 3 -6 -2 18 300.94 815.01 545.82 <
2813 2 -2 -6 -18 300.94 815.01 545.82 <
2813 1 6 2 18 300.94 815.01 545.82 <
2814 3 6 2 18 288.14 -134.52 878.32 <
2814 2 2 6 -18 288.14 -134.52 878.32 <
2814 1 -6 -2 18 288.14 -134.52 878.32 <
2815 3 -7 -2 18 235.88 815.01 537.89 <
2815 1 7 2 18 235.88 815.01 537.89 <
2816 3 7 2 18 237.69 648.85 688.33 <
2816 1 -7 -2 18 237.69 648.85 688.33 <
2817 3 -8 -2 18 258.37 1107.79 529.80 o
2817 2 -2 -8 -18 258.37 1107.79 529.80 o
2817 1 8 2 18 258.37 1107.79 529.80 o
2818 3 -9 -2 18 79.75 957.44 458.60 o
2818 1 9 2 18 79.75 957.44 458.60 o
2819 3 9 -4 18 188.63 379.81 854.56 <
2819 1 -9 4 18 188.63 379.81 854.56 <
2820 3 -9 4 18 188.65 1107.79 506.03 o
2820 1 9 -4 18 188.65 1107.79 506.03 o
2821 3 8 -4 18 145.12 1598.38 830.32 <
2821 2 -4 8 -18 145.12 1598.38 830.32 <
2821 1 -8 4 18 145.12 1598.38 830.32 <
2822 3 -8 4 18 146.79 894.14 522.00 <
2822 2 4 -8 -18 146.79 894.14 522.00 <
2822 1 8 -4 18 146.79 894.14 522.00 <
2823 3 7 -4 18 150.65 -609.28 791.18 <
2823 1 -7 4 18 150.65 -609.28 791.18 <
2824 3 -7 4 18 152.69 -435.20 490.51 <
2824 1 7 -4 18 152.69 -435.20 490.51 <
2825 3 6 -4 18 304.31 39.56 712.16 <
2825 2 -4 6 -18 304.31 39.56 712.16 <
2825 1 -6 4 18 304.31 39.56 712.16 <
2826 3 -6 4 18 302.36 640.93 474.67 <
2826 2 4 -6 -18 302.36 640.93 474.67 <
2826 1 6 -4 18 302.36 640.93 474.67 <
2827 3 5 -4 18 428.86 387.73 767.54 <
2827 1 -5 4 18 428.86 387.73 767.54 <
2828 3 -5 4 18 436.11 427.29 474.77 <
2828 1 5 -4 18 436.11 427.29 474.77 <
2829 3 4 -4 18 454.08 -332.34 854.56 <
2829 2 -4 4 -18 454.08 -332.34 854.56 <
2829 1 -4 4 18 454.08 -332.34 854.56 <
2830 3 -4 4 18 461.47 830.84 466.70 <
2830 2 4 -4 -18 461.47 830.84 466.70 <
2830 1 4 -4 18 461.47 830.84 466.70 <
2831 3 3 -4 18 181.62 379.81 767.52 <
2831 1 -3 4 18 181.62 379.81 767.52 <
2832 3 -3 4 18 185.90 -102.87 522.24 <
2832 1 3 -4 18 185.90 -102.87 522.24 <
2833 3 2 -4 18 150.73 -474.77 775.39 <
2833 2 -4 2 -18 150.73 -474.77 775.39 <
2833 1 -2 4 18 150.73 -474.77 775.39 <
2834 3 -2 4 18 146.35 878.32 474.50 <
2834 2 4 -2 -18 146.35 878.32 474.50 <
2834 1 2 -4 18 146.35 878.32 474.50 <
2835 3 1 -4 18 206.85 -522.24 822.86 <
2835 1 -1 4 18 206.85 -522.24 822.86 <
2836 3 -1 4 18 202.04 545.98 569.65 <
2836 1 1 -4 18 202.04 545.98 569.65 <
2837 3 0 -4 18 2136.49 973.27 847.16 <
2837 2 -4 0 -18 2136.49 973.27 847.16 <
2837 1 0 4 18 2136.49 973.27 847.16 <
2838 3 0 4 18 2117.33 2025.67 625.19 o
2838 2 4 0 -18 2117.33 2025.67 625.19 o
2838 1 0 -4 18 2117.33 2025.67 625.19 o
2839 3 -1 -4 18 206.85 664.67 814.94 <
2839 1 1 4 18 206.85 664.67 814.94 <
2840 3 1 4 18 202.04 625.11 822.86 <
2840 1 -1 -4 18 202.04 625.11 822.86 <
2841 3 -2 -4 18 152.76 799.19 767.41 <
2841 2 -4 -2 -18 152.76 799.19 767.41 <
2841 1 2 4 18 152.76 799.19 767.41 <
2842 3 2 4 18 144.32 166.17 751.71 <
2842 2 4 2 -18 144.32 166.17 751.71 <
2842 1 -2 -4 18 144.32 166.17 751.71 <
2843 3 -3 -4 18 181.62 585.54 799.13 <
2843 1 3 4 18 181.62 585.54 799.13 <
2844 3 3 4 18 185.90 -118.69 807.10 <
2844 1 -3 -4 18 185.90 -118.69 807.10 <
2845 3 -4 -4 18 466.64 -134.52 830.85 <
2845 2 -4 -4 -18 466.64 -134.52 830.85 <
2845 1 4 4 18 466.64 -134.52 830.85 <
2846 3 4 4 18 448.91 1345.17 901.78 <
2846 2 4 4 -18 448.91 1345.17 901.78 <
2846 1 -4 -4 18 448.91 1345.17 901.78 <
2847 3 -5 -4 18 428.86 -7.91 854.60 <
2847 1 5 4 18 428.86 -7.91 854.60 <
2848 3 5 4 18 436.11 -506.42 846.61 <
2848 1 -5 -4 18 436.11 -506.42 846.61 <
2849 3 -6 -4 18 301.77 451.03 601.34 <
2849 2 -4 -6 -18 301.77 451.03 601.34 <
2849 1 6 4 18 301.77 451.03 601.34 <
2850 3 6 4 18 304.90 1637.94 869.91 <
2850 2 4 6 -18 304.90 1637.94 869.91 <
2850 1 -6 -4 18 304.90 1637.94 869.91 <
2851 3 -7 -4 18 150.65 791.28 632.86 <
2851 1 7 4 18 150.65 791.28 632.86 <
2852 3 7 4 18 152.69 -1329.34 909.60 <
2852 1 -7 -4 18 152.69 -1329.34 909.60 <
2853 3 -8 -4 18 147.18 625.11 617.10 <
2853 2 -4 -8 -18 147.18 625.11 617.10 <
2853 1 8 4 18 147.18 625.11 617.10 <
2854 3 8 4 18 144.73 181.99 838.75 <
2854 2 4 8 -18 144.73 181.99 838.75 <
2854 1 -8 -4 18 144.73 181.99 838.75 <
2855 3 -9 -4 18 188.63 704.23 640.82 <
2855 1 9 4 18 188.63 704.23 640.82 <
2856 3 9 4 18 188.65 688.41 894.06 <
2856 1 -9 -4 18 188.65 688.41 894.06 <
2857 3 7 -6 18 266.93 1281.87 703.87 <
2857 1 -7 6 18 266.93 1281.87 703.87 <
2858 3 -7 6 18 267.45 1131.52 490.19 o
2858 1 7 -6 18 267.45 1131.52 490.19 o
2859 3 6 -6 18 211.52 300.68 727.97 <
2859 2 -6 6 -18 211.52 300.68 727.97 <
2859 1 -6 6 18 211.52 300.68 727.97 <
2860 3 -6 6 18 213.04 886.23 482.43 <
2860 2 6 -6 -18 213.04 886.23 482.43 <
2860 1 6 -6 18 213.04 886.23 482.43 <
2861 3 5 -6 18 72.32 118.69 815.01 <
2861 1 -5 6 18 72.32 118.69 815.01 <
2862 3 -5 6 18 73.52 553.89 498.40 <
2862 1 5 -6 18 73.52 553.89 498.40 <
2863 3 4 -6 18 287.41 316.51 846.66 <
2863 2 -6 4 -18 287.41 316.51 846.66 <
2863 1 -4 6 18 287.41 316.51 846.66 <
2864 3 -4 6 18 287.02 561.81 466.78 <
2864 2 6 -4 -18 287.02 561.81 466.78 <
2864 1 4 -6 18 287.02 561.81 466.78 <
2865 3 3 -6 18 310.57 822.93 727.85 <
2865 1 -3 6 18 310.57 822.93 727.85 <
2866 3 -3 6 18 308.43 1535.07 537.38 o
2866 1 3 -6 18 308.43 1535.07 537.38 o
2867 3 2 -6 18 205.83 1677.50 877.78 <
2867 2 -6 2 -18 205.83 1677.50 877.78 <
2867 1 -2 6 18 205.83 1677.50 877.78 <
2868 3 -2 6 18 202.87 1440.12 616.65 o
2868 2 6 -2 -18 202.87 1440.12 616.65 o
2868 1 2 -6 18 202.87 1440.12 616.65 o
2869 3 1 -6 18 54.61 973.27 909.79 <
2869 1 -1 6 18 54.61 973.27 909.79 <
2870 3 -1 6 18 55.94 1171.09 632.65 <
2870 1 1 -6 18 55.94 1171.09 632.65 <
2871 3 0 -6 18 487.27 -387.73 862.46 <
2871 2 -6 0 -18 487.27 -387.73 862.46 <
2871 1 0 6 18 487.27 -387.73 862.46 <
2872 3 0 6 18 486.37 743.80 767.48 <
2872 2 6 0 -18 486.37 743.80 767.48 <
2872 1 0 -6 18 486.37 743.80 767.48 <
2873 3 -1 -6 18 54.61 -862.49 981.04 <
2873 1 1 6 18 54.61 -862.49 981.04 <
2874 3 1 6 18 55.94 545.98 941.57 <
2874 1 -1 -6 18 55.94 545.98 941.57 <
2875 3 -2 -6 18 207.81 -142.43 917.88 <
2875 2 -6 -2 -18 207.81 -142.43 917.88 <
2875 1 2 6 18 207.81 -142.43 917.88 <
2876 3 2 6 18 200.90 348.16 886.22 <
2876 2 6 2 -18 200.90 348.16 886.22 <
2876 1 -2 -6 18 200.90 348.16 886.22 <
2877 3 -3 -6 18 310.57 1606.29 869.94 <
2877 1 3 6 18 310.57 1606.29 869.94 <
2878 3 3 6 18 308.43 2152.27 853.69 o
2878 1 -3 -6 18 308.43 2152.27 853.69 o
2879 3 -4 -6 18 285.98 363.99 854.57 <
2879 2 -6 -4 -18 285.98 363.99 854.57 <
2879 1 4 6 18 285.98 363.99 854.57 <
2880 3 4 6 18 288.45 498.50 886.20 <
2880 2 6 4 -18 288.45 498.50 886.20 <
2880 1 -4 -6 18 288.45 498.50 886.20 <
2881 3 -5 -6 18 72.32 1938.62 869.65 o
2881 1 5 6 18 72.32 1938.62 869.65 o
2882 3 5 6 18 73.52 292.77 902.04 <
2882 1 -5 -6 18 73.52 292.77 902.04 <
2883 3 -6 -6 18 214.11 878.32 917.75 <
2883 2 -6 -6 -18 214.11 878.32 917.75 <
2883 1 6 6 18 214.11 878.32 917.75 <
2884 3 6 6 18 210.45 -31.65 894.15 <
2884 2 6 6 -18 210.45 -31.65 894.15 <
2884 1 -6 -6 18 210.45 -31.65 894.15 <
2885 3 -7 -6 18 266.93 316.51 799.18 <
2885 1 7 6 18 266.93 316.51 799.18 <
2886 3 7 6 18 267.45 973.27 854.41 <
2886 1 -7 -6 18 267.45 973.27 854.41 <
2887 3 5 -8 18 173.82 -102.87 878.32 <
2887 1 -5 8 18 173.82 -102.87 878.32 <
2888 3 -5 8 18 173.75 1463.86 600.78 o
2888 1 5 -8 18 173.75 1463.86 600.78 o
2889 3 4 -8 18 143.40 1186.91 640.57 <
2889 2 -8 4 -18 143.40 1186.91 640.57 <
2889 1 -4 8 18 143.40 1186.91 640.57 <
2890 3 -4 8 18 143.50 -7.91 609.28 <
2890 2 8 -4 -18 143.50 -7.91 609.28 <
2890 1 4 -8 18 143.50 -7.91 609.28 <
2891 3 3 -8 18 0.81 -379.81 656.72 <
2891 1 -3 8 18 0.81 -379.81 656.72 <
2892 3 -3 8 18 0.80 363.99 648.81 <
2892 1 3 -8 18 0.80 363.99 648.81 <
2893 3 2 -8 18 270.10 -371.90 680.46 <
2893 2 -8 2 -18 270.10 -371.90 680.46 <
2893 1 -2 8 18 270.10 -371.90 680.46 <
2894 3 -2 8 18 268.75 1416.38 648.36 o
2894 2 8 -2 -18 268.75 1416.38 648.36 o
2894 1 2 -8 18 268.75 1416.38 648.36 o
2895 3 1 -8 18 74.13 -229.47 704.22 <
2895 1 -1 8 18 74.13 -229.47 704.22 <
2896 3 -1 8 18 73.86 435.20 664.63 <
2896 1 1 -8 18 73.86 435.20 664.63 <
2897 3 0 -8 18 140.96 395.64 727.94 <
2897 2 -8 0 -18 140.96 395.64 727.94 <
2897 1 0 8 18 140.96 395.64 727.94 <
2898 3 0 8 18 139.48 -221.56 735.87 <
2898 2 8 0 -18 139.48 -221.56 735.87 <
2898 1 0 -8 18 139.48 -221.56 735.87 <
2899 3 -1 -8 18 74.13 -118.69 799.18 <
2899 1 1 8 18 74.13 -118.69 799.18 <
2900 3 1 8 18 73.86 -134.52 775.45 <
2900 1 -1 -8 18 73.86 -134.52 775.45 <
2901 3 -2 -8 18 267.93 269.03 949.53 <
2901 2 -8 -2 -18 267.93 269.03 949.53 <
2901 1 2 8 18 267.93 269.03 949.53 <
2902 3 2 8 18 270.92 332.34 807.09 <
2902 2 8 2 -18 270.92 332.34 807.09 <
2902 1 -2 -8 18 270.92 332.34 807.09 <
2903 3 -3 -8 18 0.81 79.13 815.01 <
2903 1 3 8 18 0.81 79.13 815.01 <
2904 3 3 8 18 0.80 -427.29 894.10 <
2904 1 -3 -8 18 0.80 -427.29 894.10 <
2905 3 -4 -8 18 144.34 1258.13 917.59 <
2905 2 -8 -4 -18 144.34 1258.13 917.59 <
2905 1 4 8 18 144.34 1258.13 917.59 <
2906 3 4 8 18 142.55 245.29 759.62 <
2906 2 8 4 -18 142.55 245.29 759.62 <
2906 1 -4 -8 18 142.55 245.29 759.62 <
2907 3 -5 -8 18 173.82 1194.83 893.88 <
2907 1 5 8 18 173.82 1194.83 893.88 <
2908 3 5 8 18 173.75 -1677.50 877.72 <
2908 1 -5 -8 18 173.75 -1677.50 877.72 <
2909 3 9 -1 19 395.47 1171.09 798.95 <
2909 2 -1 9 -19 395.47 1171.09 798.95 <
2909 1 -9 1 19 395.47 1171.09 798.95 <
2910 3 -9 1 19 395.70 680.50 490.50 <
2910 2 1 -9 -19 395.70 680.50 490.50 <
2910 1 9 -1 19 395.70 680.50 490.50 <
2911 3 8 -1 19 25.18 -443.11 775.40 <
2911 1 -8 1 19 25.18 -443.11 775.40 <
2912 3 -8 1 19 25.04 474.77 498.42 <
2912 1 8 -1 19 25.04 474.77 498.42 <
2913 3 7 -1 19 1725.31 854.58 854.89 <
2913 2 -1 7 -19 1725.31 854.58 854.89 <
2913 1 -7 1 19 1725.31 854.58 854.89 <
2914 3 -7 1 19 1730.06 1123.61 498.93 o
2914 2 1 -7 -19 1730.06 1123.61 498.93 o
2914 1 7 -1 19 1730.06 1123.61 498.93 o
2915 3 6 -1 19 500.63 601.37 822.91 <
2915 1 -6 1 19 500.63 601.37 822.91 <
2916 3 -6 1 19 503.44 356.07 458.97 <
2916 1 6 -1 19 503.44 356.07 458.97 <
2917 3 5 -1 19 3708.46 4431.14 734.79 o
2917 2 -1 5 -19 3708.46 4431.14 734.79 o
2917 1 -5 1 19 3708.46 4431.14 734.79 o
2918 3 -5 1 19 3714.78 4549.83 496.59 o
2918 2 1 -5 -19 3714.78 4549.83 496.59 o
2918 1 5 -1 19 3714.78 4549.83 496.59 o
2919 3 4 -1 19 1631.47 1273.95 815.18 <
2919 1 -4 1 19 1631.47 1273.95 815.18 <
2920 3 -4 1 19 1636.55 1234.39 625.34 <
2920 1 4 -1 19 1636.55 1234.39 625.34 <
2921 3 3 -1 19 3809.39 3165.10 594.43 o
2921 2 -1 3 -19 3809.39 3165.10 594.43 o
2921 1 -3 1 19 3809.39 3165.10 594.43 o
2922 3 -3 1 19 3822.55 3940.55 640.74 o
2922 2 1 -3 -19 3822.55 3940.55 640.74 o
2922 1 3 -1 19 3822.55 3940.55 640.74 o
2923 3 2 -1 19 1811.01 1368.91 664.94 o
2923 1 -2 1 19 1811.01 1368.91 664.94 o
2924 3 -2 1 19 1816.87 1384.73 704.48 <
2924 1 2 -1 19 1816.87 1384.73 704.48 <
2925 3 1 -1 19 365.36 482.68 727.95 <
2925 2 -1 1 -19 365.36 482.68 727.95 <
2925 1 -1 1 19 365.36 482.68 727.95 <
2926 3 -1 1 19 372.76 269.03 664.68 <
2926 2 1 -1 -19 372.76 269.03 664.68 <
2926 1 1 -1 19 372.76 269.03 664.68 <
2927 3 -1 -1 19 377.96 316.51 696.33 <
2927 2 -1 -1 -19 377.96 316.51 696.33 <
2927 1 1 1 19 377.96 316.51 696.33 <
2928 3 1 1 19 360.15 -15.83 727.99 <
2928 2 1 1 -19 360.15 -15.83 727.99 <
2928 1 -1 -1 19 360.15 -15.83 727.99 <
2929 3 -2 -1 19 1811.01 1424.30 736.10 <
2929 1 2 1 19 1811.01 1424.30 736.10 <
2930 3 2 1 19 1816.85 1266.04 680.81 <
2930 1 -2 -1 19 1816.85 1266.04 680.81 <
2931 3 -3 -1 19 3835.63 3291.71 720.76 o
2931 2 -1 -3 -19 3835.63 3291.71 720.76 o
2931 1 3 1 19 3835.63 3291.71 720.76 o
2932 3 3 1 19 3796.36 3299.62 602.13 o
2932 2 1 3 -19 3796.36 3299.62 602.13 o
2932 1 -3 -1 19 3796.36 3299.62 602.13 o
2933 3 -4 -1 19 1631.44 2017.75 703.96 o
2933 1 4 1 19 1631.44 2017.75 703.96 o
2934 3 4 1 19 1636.56 1479.69 641.03 o
2934 1 -4 -1 19 1636.56 1479.69 641.03 o
2935 3 -5 -1 19 3726.57 4035.50 648.35 o
2935 2 -1 -5 -19 3726.57 4035.50 648.35 o
2935 1 5 1 19 3726.57 4035.50 648.35 o
2936 3 5 1 19 3696.66 4779.30 591.30 o
2936 2 1 5 -19 3696.66 4779.30 591.30 o
2936 1 -5 -1 19 3696.66 4779.30 591.30 o
2937 3 -6 -1 19 500.63 -126.60 648.87 <
2937 1 6 1 19 500.63 -126.60 648.87 <
2938 3 6 1 19 503.44 490.59 609.28 <
2938 1 -6 -1 19 503.44 490.59 609.28 <
2939 3 -7 -1 19 1730.82 3109.71 623.55 o
2939 2 -1 -7 -19 1730.82 3109.71 623.55 o
2939 1 7 1 19 1730.82 3109.71 623.55 o
2940 3 -8 -1 19 25.18 443.11 419.30 <
2940 1 8 1 19 25.18 443.11 419.30 <
2941 3 -9 -1 19 395.93 1099.87 434.83 o
2941 2 -1 -9 -19 395.93 1099.87 434.83 o
2941 1 9 1 19 395.93 1099.87 434.83 o
2942 3 9 -3 19 312.77 1582.55 838.28 <
2942 2 -3 9 -19 312.77 1582.55 838.28 <
2942 1 -9 3 19 312.77 1582.55 838.28 <
2943 3 -9 3 19 313.56 609.28 498.42 <
2943 2 3 -9 -19 313.56 609.28 498.42 <
2943 1 9 -3 19 313.56 609.28 498.42 <
2944 3 8 -3 19 242.23 1424.30 782.95 <
2944 1 -8 3 19 242.23 1424.30 782.95 <
2945 3 -8 3 19 244.49 751.71 490.43 <
2945 1 8 -3 19 244.49 751.71 490.43 <
2946 3 7 -3 19 879.42 1036.57 712.09 <
2946 2 -3 7 -19 879.42 1036.57 712.09 <
2946 1 -7 3 19 879.42 1036.57 712.09 <
2947 3 -7 3 19 882.07 957.44 490.55 <
2947 2 3 -7 -19 882.07 957.44 490.55 <
2947 1 7 -3 19 882.07 957.44 490.55 <
2948 3 6 -3 19 93.07 989.09 735.66 <
2948 1 -6 3 19 93.07 989.09 735.66 <
2949 3 -6 3 19 93.45 276.95 482.66 <
2949 1 6 -3 19 93.45 276.95 482.66 <
2950 3 5 -3 19 2915.61 3908.90 877.24 o
2950 2 -3 5 -19 2915.61 3908.90 877.24 o
2950 1 -5 3 19 2915.61 3908.90 877.24 o
2951 3 -5 3 19 2929.46 2935.63 482.67 o
2951 2 3 -5 -19 2929.46 2935.63 482.67 o
2951 1 5 -3 19 2929.46 2935.63 482.67 o
2952 3 4 -3 19 633.07 31.65 783.41 <
2952 1 -4 3 19 633.07 31.65 783.41 <
2953 3 -4 3 19 639.44 633.02 506.42 <
2953 1 4 -3 19 639.44 633.02 506.42 <
2954 3 3 -3 19 4095.95 4621.05 766.73 o
2954 2 -3 3 -19 4095.95 4621.05 766.73 o
2954 1 -3 3 19 4095.95 4621.05 766.73 o
2955 3 -3 3 19 4124.21 4312.45 529.75 o
2955 2 3 -3 -19 4124.21 4312.45 529.75 o
2955 1 3 -3 19 4124.21 4312.45 529.75 o
2956 3 2 -3 19 81.72 -807.10 775.29 <
2956 1 -2 3 19 81.72 -807.10 775.29 <
2957 3 -2 3 19 83.96 530.16 530.07 <
2957 1 2 -3 19 83.96 530.16 530.07 <
2958 3 1 -3 19 4199.33 3252.14 839.83 o
2958 2 -3 1 -19 4199.33 3252.14 839.83 o
2958 1 -1 3 19 4199.33 3252.14 839.83 o
2959 3 -1 3 19 4220.22 3442.05 547.39 o
2959 2 3 -1 -19 4220.22 3442.05 547.39 o
2959 1 1 -3 19 4220.22 3442.05 547.39 o
2960 3 -1 -3 19 4231.02 3695.26 815.69 o
2960 2 -3 -1 -19 4231.02 3695.26 815.69 o
2960 1 1 3 19 4231.02 3695.26 815.69 o
2961 3 1 3 19 4188.59 4201.67 815.00 o
2961 2 3 1 -19 4188.59 4201.67 815.00 o
2961 1 -1 -3 19 4188.59 4201.67 815.00 o
2962 3 -2 -3 19 81.72 -656.76 822.83 <
2962 1 2 3 19 81.72 -656.76 822.83 <
2963 3 2 3 19 83.96 965.36 759.42 <
2963 1 -2 -3 19 83.96 965.36 759.42 <
2964 3 -3 -3 19 4144.01 5095.81 853.16 o
2964 2 -3 -3 -19 4144.01 5095.81 853.16 o
2964 1 3 3 19 4144.01 5095.81 853.16 o
2965 3 3 3 19 4076.10 3101.80 855.62 o
2965 2 3 3 -19 4076.10 3101.80 855.62 o
2965 1 -3 -3 19 4076.10 3101.80 855.62 o
2966 3 -4 -3 19 633.07 15.83 925.83 <
2966 1 4 3 19 633.07 15.83 925.83 <
2967 3 4 3 19 639.46 965.36 830.75 <
2967 1 -4 -3 19 639.46 965.36 830.75 <
2968 3 -5 -3 19 2943.19 2294.70 704.85 o
2968 2 -3 -5 -19 2943.19 2294.70 704.85 o
2968 1 5 3 19 2943.19 2294.70 704.85 o
2969 3 5 3 19 2901.91 2088.97 910.53 o
2969 2 3 5 -19 2901.91 2088.97 910.53 o
2969 1 -5 -3 19 2901.91 2088.97 910.53 o
2970 3 -6 -3 19 93.07 134.52 569.72 <
2970 1 6 3 19 93.07 134.52 569.72 <
2971 3 6 3 19 93.44 -451.03 775.40 <
2971 1 -6 -3 19 93.44 -451.03 775.40 <
2972 3 -7 -3 19 883.15 1550.90 569.30 o
2972 2 -3 -7 -19 883.15 1550.90 569.30 o
2972 1 7 3 19 883.15 1550.90 569.30 o
2973 3 7 3 19 878.33 1843.67 830.37 o
2973 2 3 7 -19 878.33 1843.67 830.37 o
2973 1 -7 -3 19 878.33 1843.67 830.37 o
2974 3 -8 -3 19 242.23 134.52 569.73 <
2974 1 8 3 19 242.23 134.52 569.73 <
2975 3 8 3 19 244.49 -727.97 846.54 <
2975 1 -8 -3 19 244.49 -727.97 846.54 <
2976 3 -9 -3 19 313.62 949.53 601.16 <
2976 2 -3 -9 -19 313.62 949.53 601.16 <
2976 1 9 3 19 313.62 949.53 601.16 <
2977 3 8 -5 19 179.78 1804.11 830.18 o
2977 1 -8 5 19 179.78 1804.11 830.18 o
2978 3 -8 5 19 178.32 1408.47 489.92 o
2978 1 8 -5 19 178.32 1408.47 489.92 o
2979 3 7 -5 19 573.64 925.79 830.75 <
2979 2 -5 7 -19 573.64 925.79 830.75 <
2979 1 -7 5 19 573.64 925.79 830.75 <
2980 3 -7 5 19 575.39 -7.91 522.30 <
2980 2 5 -7 -19 575.39 -7.91 522.30 <
2980 1 7 -5 19 575.39 -7.91 522.30 <
2981 3 6 -5 19 267.10 -846.66 838.58 <
2981 1 -6 5 19 267.10 -846.66 838.58 <
2982 3 -6 5 19 269.70 55.39 474.78 <
2982 1 6 -5 19 269.70 55.39 474.78 <
2983 3 5 -5 19 1048.56 1899.06 814.56 o
2983 2 -5 5 -19 1048.56 1899.06 814.56 o
2983 1 -5 5 19 1048.56 1899.06 814.56 o
2984 3 -5 5 19 1054.60 1519.25 482.33 o
2984 2 5 -5 -19 1054.60 1519.25 482.33 o
2984 1 5 -5 19 1054.60 1519.25 482.33 o
2985 3 4 -5 19 148.88 1479.69 782.89 <
2985 1 -4 5 19 148.88 1479.69 782.89 <
2986 3 -4 5 19 147.30 -775.45 434.94 <
2986 1 4 -5 19 147.30 -775.45 434.94 <
2987 3 3 -5 19 3225.59 2911.89 823.23 o
2987 2 -5 3 -19 3225.59 2911.89 823.23 o
2987 1 -3 5 19 3225.59 2911.89 823.23 o
2988 3 -3 5 19 3247.46 1922.80 492.29 o
2988 2 5 -3 -19 3247.46 1922.80 492.29 o
2988 1 3 -5 19 3247.46 1922.80 492.29 o
2989 3 2 -5 19 85.80 474.77 854.54 <
2989 1 -2 5 19 85.80 474.77 854.54 <
2990 3 -2 5 19 88.14 126.60 498.50 <
2990 1 2 -5 19 88.14 126.60 498.50 <
2991 3 1 -5 19 4445.47 5230.33 877.13 o
2991 2 -5 1 -19 4445.47 5230.33 877.13 o
2991 1 -1 5 19 4445.47 5230.33 877.13 o
2992 3 -1 5 19 4466.52 4106.72 538.82 o
2992 2 5 -1 -19 4466.52 4106.72 538.82 o
2992 1 1 -5 19 4466.52 4106.72 538.82 o
2993 3 -1 -5 19 4474.01 4130.46 902.48 o
2993 2 -5 -1 -19 4474.01 4130.46 902.48 o
2993 1 1 5 19 4474.01 4130.46 902.48 o
2994 3 1 5 19 4437.96 4985.04 901.28 o
2994 2 5 1 -19 4437.96 4985.04 901.28 o
2994 1 -1 -5 19 4437.96 4985.04 901.28 o
2995 3 -2 -5 19 85.80 -403.55 925.76 <
2995 1 2 5 19 85.80 -403.55 925.76 <
2996 3 2 5 19 88.14 -846.66 933.56 <
2996 1 -2 -5 19 88.14 -846.66 933.56 <
2997 3 -3 -5 19 3258.83 1906.97 926.71 o
2997 2 -5 -3 -19 3258.83 1906.97 926.71 o
2997 1 3 5 19 3258.83 1906.97 926.71 o
2998 3 3 5 19 3214.24 3734.82 949.01 o
2998 2 5 3 -19 3214.24 3734.82 949.01 o
2998 1 -3 -5 19 3214.24 3734.82 949.01 o
2999 3 -4 -5 19 148.88 593.46 846.60 <
2999 1 4 5 19 148.88 593.46 846.60 <
3000 3 4 5 19 147.30 -316.51 838.73 <
3000 1 -4 -5 19 147.30 -316.51 838.73 <
3001 3 -5 -5 19 1058.85 427.29 862.61 <
3001 2 -5 -5 -19 1058.85 427.29 862.61 <
3001 1 5 5 19 1058.85 427.29 862.61 <
3002 3 5 5 19 1044.32 648.85 838.85 <
3002 2 5 5 -19 1044.32 648.85 838.85 <
3002 1 -5 -5 19 1044.32 648.85 838.85 <
3003 3 -6 -5 19 267.10 15.83 902.06 <
3003 1 6 5 19 267.10 15.83 902.06 <
3004 3 6 5 19 269.71 2239.31 853.60 o
3004 1 -6 -5 19 269.71 2239.31 853.60 o
3005 3 -7 -5 19 576.04 1131.52 751.53 <
3005 2 -5 -7 -19 576.04 1131.52 751.53 <
3005 1 7 5 19 576.04 1131.52 751.53 <
3006 3 7 5 19 572.99 181.99 822.97 <
3006 2 5 7 -19 572.99 181.99 822.97 <
3006 1 -7 -5 19 572.99 181.99 822.97 <
3007 3 -8 -5 19 179.78 704.23 743.70 <
3007 1 8 5 19 179.78 704.23 743.70 <
3008 3 8 5 19 178.32 672.58 854.50 <
3008 1 -8 -5 19 178.32 672.58 854.50 <
3009 3 6 -7 19 160.16 1487.60 838.31 <
3009 1 -6 7 19 160.16 1487.60 838.31 <
3010 3 -6 7 19 158.70 1115.70 513.93 o
3010 1 6 -7 19 158.70 1115.70 513.93 o
3011 3 5 -7 19 630.71 -1060.31 806.82 <
3011 2 -7 5 -19 630.71 -1060.31 806.82 <
3011 1 -5 7 19 630.71 -1060.31 806.82 <
3012 3 -5 7 19 631.30 933.71 466.71 <
3012 2 7 -5 -19 631.30 933.71 466.71 <
3012 1 5 -7 19 631.30 933.71 466.71 <
3013 3 4 -7 19 106.01 1250.22 862.18 <
3013 1 -4 7 19 106.01 1250.22 862.18 <
3014 3 -4 7 19 107.11 102.87 506.42 <
3014 1 4 -7 19 107.11 102.87 506.42 <
3015 3 3 -7 19 1060.93 751.71 807.19 <
3015 2 -7 3 -19 1060.93 751.71 807.19 <
3015 1 -3 7 19 1060.93 751.71 807.19 <
3016 3 -3 7 19 1062.02 1598.38 545.61 o
3016 2 7 -3 -19 1062.02 1598.38 545.61 o
3016 1 3 -7 19 1062.02 1598.38 545.61 o
3017 3 2 -7 19 57.97 181.99 815.01 <
3017 1 -2 7 19 57.97 181.99 815.01 <
3018 3 -2 7 19 57.27 894.14 561.56 <
3018 1 2 -7 19 57.27 894.14 561.56 <
3019 3 1 -7 19 2223.69 680.50 783.99 <
3019 2 -7 1 -19 2223.69 680.50 783.99 <
3019 1 -1 7 19 2223.69 680.50 783.99 <
3020 3 -1 7 19 2223.27 2350.09 648.73 o
3020 2 7 -1 -19 2223.27 2350.09 648.73 o
3020 1 1 -7 19 2223.27 2350.09 648.73 o
3021 3 -1 -7 19 2225.53 2658.69 798.83 o
3021 2 -7 -1 -19 2225.53 2658.69 798.83 o
3021 1 1 7 19 2225.53 2658.69 798.83 o
3022 3 1 7 19 2221.44 2294.70 854.53 o
3022 2 7 1 -19 2221.44 2294.70 854.53 o
3022 1 -1 -7 19 2221.44 2294.70 854.53 o
3023 3 -2 -7 19 57.97 221.56 902.05 <
3023 1 2 7 19 57.97 221.56 902.05 <
3024 3 2 7 19 57.27 902.05 830.67 <
3024 1 -2 -7 19 57.27 902.05 830.67 <
3025 3 -3 -7 19 1063.55 1535.07 886.03 <
3025 2 -7 -3 -19 1063.55 1535.07 886.03 <
3025 1 3 7 19 1063.55 1535.07 886.03 <
3026 3 3 7 19 1059.40 -118.69 878.41 <
3026 2 7 3 -19 1059.40 -118.69 878.41 <
3026 1 -3 -7 19 1059.40 -118.69 878.41 <
3027 3 -4 -7 19 106.01 379.81 917.86 <
3027 1 4 7 19 106.01 379.81 917.86 <
3028 3 4 7 19 107.11 973.27 933.54 <
3028 1 -4 -7 19 107.11 973.27 933.54 <
3029 3 -5 -7 19 632.29 -561.81 902.00 <
3029 2 -7 -5 -19 632.29 -561.81 902.00 <
3029 1 5 7 19 632.29 -561.81 902.00 <
3030 3 5 7 19 629.72 1906.97 901.49 o
3030 2 7 5 -19 629.72 1906.97 901.49 o
3030 1 -5 -7 19 629.72 1906.97 901.49 o
3031 3 -6 -7 19 160.16 -443.11 870.36 <
3031 1 6 7 19 160.16 -443.11 870.36 <
3032 3 6 7 19 158.70 1250.22 870.11 <
3032 1 -6 -7 19 158.70 1250.22 870.11 <
3033 3 3 -9 19 398.18 949.53 704.08 <
3033 2 -9 3 -19 398.18 949.53 704.08 <
3033 1 -3 9 19 398.18 949.53 704.08 <
3034 3 -3 9 19 397.97 822.93 664.55 <
3034 2 9 -3 -19 397.97 822.93 664.55 <
3034 1 3 -9 19 397.97 822.93 664.55 <
3035 3 2 -9 19 12.41 735.89 743.67 <
3035 1 -2 9 19 12.41 735.89 743.67 <
3036 3 -2 9 19 12.59 221.56 656.75 <
3036 1 2 -9 19 12.59 221.56 656.75 <
3037 3 1 -9 19 531.02 1582.55 767.09 o
3037 2 -9 1 -19 531.02 1582.55 767.09 o
3037 1 -1 9 19 531.02 1582.55 767.09 o
3038 3 -1 9 19 531.38 759.63 680.44 <
3038 2 9 -1 -19 531.38 759.63 680.44 <
3038 1 1 -9 19 531.38 759.63 680.44 <
3039 3 -1 -9 19 531.56 1289.78 917.65 <
3039 2 -9 -1 -19 531.56 1289.78 917.65 <
3039 1 1 9 19 531.56 1289.78 917.65 <
3040 3 1 9 19 530.84 1099.87 822.76 <
3040 2 9 1 -19 530.84 1099.87 822.76 <
3040 1 -1 -9 19 530.84 1099.87 822.76 <
3041 3 -2 -9 19 12.41 1068.22 901.83 <
3041 1 2 9 19 12.41 1068.22 901.83 <
3042 3 2 9 19 12.59 1408.47 751.24 <
3042 1 -2 -9 19 12.59 1408.47 751.24 <
3043 3 -3 -9 19 398.32 1004.92 941.48 <
3043 2 -9 -3 -19 398.32 1004.92 941.48 <
3043 1 3 9 19 398.32 1004.92 941.48 <
3044 3 3 9 19 397.83 902.05 886.12 <
3044 2 9 3 -19 397.83 902.05 886.12 <
3044 1 -3 -9 19 397.83 902.05 886.12 <
3045 3 0 0 20 48918.10 53743.40 884.61 o
3045 2 0 0 -20 48918.10 53743.40 884.61 o
3045 1 0 0 20 48918.10 53743.40 884.61 o
3046 3 -1 0 20 14082.20 14076.80 791.30 o
3046 1 1 0 20 14082.20 14076.80 791.30 o
3047 3 1 0 20 14082.20 14132.20 798.95 o
3047 1 -1 0 20 14082.20 14132.20 798.95 o
3048 3 -2 0 20 3552.50 2911.89 712.90 o
3048 2 0 -2 -20 3552.50 2911.89 712.90 o
3048 1 2 0 20 3552.50 2911.89 712.90 o
3049 3 2 0 20 3556.12 3687.34 656.57 o
3049 2 0 2 -20 3556.12 3687.34 656.57 o
3049 1 -2 0 20 3556.12 3687.34 656.57 o
3050 3 -3 0 20 3423.69 3267.97 743.98 o
3050 1 3 0 20 3423.69 3267.97 743.98 o
3051 3 3 0 20 3423.67 3149.28 657.12 o
3051 1 -3 0 20 3423.67 3149.28 657.12 o
3052 3 -4 0 20 44909.10 43346.10 898.89 o
3052 2 0 -4 -20 44909.10 43346.10 898.89 o
3052 1 4 0 20 44909.10 43346.10 898.89 o
3053 3 4 0 20 44915.00 46440.00 767.31 o
3053 2 0 4 -20 44915.00 46440.00 767.31 o
3053 1 -4 0 20 44915.00 46440.00 767.31 o
3054 3 -5 0 20 6778.18 4462.79 677.37 o
3054 1 5 0 20 6778.18 4462.79 677.37 o
3055 3 5 0 20 6778.18 4494.44 575.31 o
3055 1 -5 0 20 6778.18 4494.44 575.31 o
3056 3 -6 0 20 1476.30 2587.47 639.91 o
3056 2 0 -6 -20 1476.30 2587.47 639.91 o
3056 1 6 0 20 1476.30 2587.47 639.91 o
3057 3 6 0 20 1505.33 2793.20 821.94 o
3057 2 0 6 -20 1505.33 2793.20 821.94 o
3057 1 -6 0 20 1505.33 2793.20 821.94 o
3058 3 -7 0 20 271.38 949.53 506.16 <
3058 1 7 0 20 271.38 949.53 506.16 <
3059 3 7 0 20 271.38 902.05 743.64 <
3059 1 -7 0 20 271.38 902.05 743.64 <
3060 3 -8 0 20 6592.17 7746.59 557.76 o
3060 2 0 -8 -20 6592.17 7746.59 557.76 o
3060 1 8 0 20 6592.17 7746.59 557.76 o
3061 3 8 0 20 6588.10 9242.10 951.25 o
3061 2 0 8 -20 6588.10 9242.10 951.25 o
3061 1 -8 0 20 6588.10 9242.10 951.25 o
3062 3 -9 0 20 484.86 625.11 450.98 <
3062 1 9 0 20 484.86 625.11 450.98 <
3063 3 9 -2 20 61.24 181.99 838.75 <
3063 1 -9 2 20 61.24 181.99 838.75 <
3064 3 -9 2 20 62.12 403.55 522.19 <
3064 1 9 -2 20 62.12 403.55 522.19 <
3065 3 8 -2 20 498.28 1266.04 751.44 <
3065 2 -2 8 -20 498.28 1266.04 751.44 <
3065 1 -8 2 20 498.28 1266.04 751.44 <
3066 3 -8 2 20 493.31 458.94 530.16 <
3066 2 2 -8 -20 493.31 458.94 530.16 <
3066 1 8 -2 20 493.31 458.94 530.16 <
3067 3 7 -2 20 1874.33 712.15 831.25 <
3067 1 -7 2 20 1874.33 712.15 831.25 <
3068 3 -7 2 20 1866.38 1867.41 490.59 o
3068 1 7 -2 20 1866.38 1867.41 490.59 o
3069 3 6 -2 20 17758.10 20652.30 901.17 o
3069 2 -2 6 -20 17758.10 20652.30 901.17 o
3069 1 -6 2 20 17758.10 20652.30 901.17 o
3070 3 -6 2 20 17752.80 18397.20 540.23 o
3070 2 2 -6 -20 17752.80 18397.20 540.23 o
3070 1 6 -2 20 17752.80 18397.20 540.23 o
3071 3 5 -2 20 1008.28 1289.78 727.85 <
3071 1 -5 2 20 1008.28 1289.78 727.85 <
3072 3 -5 2 20 1012.76 1416.38 482.39 o
3072 1 5 -2 20 1012.76 1416.38 482.39 o
3073 3 4 -2 20 569.64 1020.75 735.74 <
3073 2 -2 4 -20 569.64 1020.75 735.74 <
3073 1 -4 2 20 569.64 1020.75 735.74 <
3074 3 -4 2 20 549.21 767.54 498.42 <
3074 2 2 -4 -20 549.21 767.54 498.42 <
3074 1 4 -2 20 549.21 767.54 498.42 <
3075 3 3 -2 20 9859.24 8221.35 843.30 o
3075 1 -3 2 20 9859.24 8221.35 843.30 o
3076 3 -3 2 20 9872.85 8561.60 630.12 o
3076 1 3 -2 20 9872.85 8561.60 630.12 o
3077 3 2 -2 20 49605.70 48006.70 1134.10 o
3077 2 -2 2 -20 49605.70 48006.70 1134.10 o
3077 1 -2 2 20 49605.70 48006.70 1134.10 o
3078 3 -2 2 20 49536.30 45996.80 750.31 o
3078 2 2 -2 -20 49536.30 45996.80 750.31 o
3078 1 2 -2 20 49536.30 45996.80 750.31 o
3079 3 1 -2 20 6792.27 5768.40 927.59 o
3079 1 -1 2 20 6792.27 5768.40 927.59 o
3080 3 -1 2 20 6774.42 7137.30 742.89 o
3080 1 1 -2 20 6774.42 7137.30 742.89 o
3081 3 0 -2 20 3576.92 3362.92 704.51 o
3081 2 -2 0 -20 3576.92 3362.92 704.51 o
3081 1 0 2 20 3576.92 3362.92 704.51 o
3082 3 0 2 20 3578.41 3093.89 665.30 o
3082 2 2 0 -20 3578.41 3093.89 665.30 o
3082 1 0 -2 20 3578.41 3093.89 665.30 o
3083 3 -1 -2 20 6792.28 6243.16 800.36 o
3083 1 1 2 20 6792.28 6243.16 800.36 o
3084 3 1 2 20 6774.43 6686.28 791.47 o
3084 1 -1 -2 20 6774.43 6686.28 791.47 o
3085 3 -2 -2 20 49487.70 44770.40 1250.27 o
3085 2 -2 -2 -20 49487.70 44770.40 1250.27 o
3085 1 2 2 20 49487.70 44770.40 1250.27 o
3086 3 2 2 20 49654.20 46147.20 1154.68 o
3086 2 2 2 -20 49654.20 46147.20 1154.68 o
3086 1 -2 -2 20 49654.20 46147.20 1154.68 o
3087 3 -3 -2 20 9859.25 7422.16 876.53 o
3087 1 3 2 20 9859.25 7422.16 876.53 o
3088 3 3 2 20 9872.87 8450.82 787.67 o
3088 1 -3 -2 20 9872.87 8450.82 787.67 o
3089 3 -4 -2 20 525.04 150.34 720.10 <
3089 2 -2 -4 -20 525.04 150.34 720.10 <
3089 1 4 2 20 525.04 150.34 720.10 <
3090 3 4 2 20 593.80 791.28 775.40 <
3090 2 2 4 -20 593.80 791.28 775.40 <
3090 1 -4 -2 20 593.80 791.28 775.40 <
3091 3 -5 -2 20 1008.28 1202.74 585.44 o
3091 1 5 2 20 1008.28 1202.74 585.44 o
3092 3 5 2 20 1012.76 1669.59 933.43 <
3092 1 -5 -2 20 1012.76 1669.59 933.43 <
3093 3 -6 -2 20 17742.40 20375.30 643.75 o
3093 2 -2 -6 -20 17742.40 20375.30 643.75 o
3093 1 6 2 20 17742.40 20375.30 643.75 o
3094 3 6 2 20 17768.50 20628.60 828.75 o
3094 2 2 6 -20 17768.50 20628.60 828.75 o
3094 1 -6 -2 20 17768.50 20628.60 828.75 o
3095 3 -7 -2 20 1874.33 1542.99 562.07 o
3095 1 7 2 20 1874.33 1542.99 562.07 o
3096 3 7 2 20 1866.39 284.86 815.43 <
3096 1 -7 -2 20 1866.39 284.86 815.43 <
3097 3 -8 -2 20 490.65 1179.00 553.58 o
3097 2 -2 -8 -20 490.65 1179.00 553.58 o
3097 1 8 2 20 490.65 1179.00 553.58 o
3098 3 -9 -2 20 61.24 1368.91 466.15 o
3098 1 9 2 20 61.24 1368.91 466.15 o
3099 3 8 -4 20 2810.26 3434.14 822.27 o
3099 2 -4 8 -20 2810.26 3434.14 822.27 o
3099 1 -8 4 20 2810.26 3434.14 822.27 o
3100 3 -8 4 20 2811.23 2358.00 522.82 o
3100 2 4 -8 -20 2811.23 2358.00 522.82 o
3100 1 8 -4 20 2811.23 2358.00 522.82 o
3101 3 7 -4 20 193.70 466.85 751.67 <
3101 1 -7 4 20 193.70 466.85 751.67 <
3102 3 -7 4 20 197.33 743.80 482.51 <
3102 1 7 -4 20 197.33 743.80 482.51 <
3103 3 6 -4 20 416.04 822.93 743.70 <
3103 2 -4 6 -20 416.04 822.93 743.70 <
3103 1 -6 4 20 416.04 822.93 743.70 <
3104 3 -6 4 20 408.61 197.82 482.71 <
3104 2 4 -6 -20 408.61 197.82 482.71 <
3104 1 6 -4 20 408.61 197.82 482.71 <
3105 3 5 -4 20 2743.23 2365.91 744.14 o
3105 1 -5 4 20 2743.23 2365.91 744.14 o
3106 3 -5 4 20 2734.90 2397.56 498.96 o
3106 1 5 -4 20 2734.90 2397.56 498.96 o
3107 3 4 -4 20 23007.90 20913.40 930.94 o
3107 2 -4 4 -20 23007.90 20913.40 930.94 o
3107 1 -4 4 20 23007.90 20913.40 930.94 o
3108 3 -4 4 20 22976.80 22741.30 556.47 o
3108 2 4 -4 -20 22976.80 22741.30 556.47 o
3108 1 4 -4 20 22976.80 22741.30 556.47 o
3109 3 3 -4 20 1885.28 2270.96 854.32 o
3109 1 -3 4 20 1885.28 2270.96 854.32 o
3110 3 -3 4 20 1888.51 2690.34 489.53 o
3110 1 3 -4 20 1888.51 2690.34 489.53 o
3111 3 2 -4 20 643.35 601.37 807.11 <
3111 2 -4 2 -20 643.35 601.37 807.11 <
3111 1 -2 4 20 643.35 601.37 807.11 <
3112 3 -2 4 20 603.16 775.45 506.35 <
3112 2 4 -2 -20 603.16 775.45 506.35 <
3112 1 2 -4 20 603.16 775.45 506.35 <
3113 3 1 -4 20 5901.68 4264.98 825.47 o
3113 1 -1 4 20 5901.68 4264.98 825.47 o
3114 3 -1 4 20 5904.54 4534.01 612.27 o
3114 1 1 -4 20 5904.54 4534.01 612.27 o
3115 3 0 -4 20 47968.80 48552.70 1045.22 o
3115 2 -4 0 -20 47968.80 48552.70 1045.22 o
3115 1 0 4 20 47968.80 48552.70 1045.22 o
3116 3 0 4 20 47971.20 46107.60 912.05 o
3116 2 4 0 -20 47971.20 46107.60 912.05 o
3116 1 0 -4 20 47971.20 46107.60 912.05 o
3117 3 -1 -4 20 5901.68 5570.58 855.16 o
3117 1 1 4 20 5901.68 5570.58 855.16 o
3118 3 1 4 20 5904.52 4803.04 856.35 o
3118 1 -1 -4 20 5904.52 4803.04 856.35 o
3119 3 -2 -4 20 584.76 870.40 807.03 <
3119 2 -4 -2 -20 584.76 870.40 807.03 <
3119 1 2 4 20 584.76 870.40 807.03 <
3120 3 2 4 20 661.75 31.65 728.03 <
3120 2 4 2 -20 661.75 31.65 728.03 <
3120 1 -2 -4 20 661.75 31.65 728.03 <
3121 3 -3 -4 20 1885.28 3798.12 924.05 o
3121 1 3 4 20 1885.28 3798.12 924.05 o
3122 3 3 4 20 1888.52 1970.28 973.22 o
3122 1 -3 -4 20 1888.52 1970.28 973.22 o
3123 3 -4 -4 20 22955.00 23508.80 1033.24 o
3123 2 -4 -4 -20 22955.00 23508.80 1033.24 o
3123 1 4 4 20 22955.00 23508.80 1033.24 o
3124 3 4 4 20 23029.70 23247.70 1035.27 o
3124 2 4 4 -20 23029.70 23247.70 1035.27 o
3124 1 -4 -4 20 23029.70 23247.70 1035.27 o
3125 3 -5 -4 20 2743.23 1653.77 744.59 o
3125 1 5 4 20 2743.23 1653.77 744.59 o
3126 3 5 4 20 2734.90 2176.01 815.45 o
3126 1 -5 -4 20 2734.90 2176.01 815.45 o
3127 3 -6 -4 20 398.94 1171.09 680.22 <
3127 2 -4 -6 -20 398.94 1171.09 680.22 <
3127 1 6 4 20 398.94 1171.09 680.22 <
3128 3 6 4 20 425.71 -55.39 830.85 <
3128 2 4 6 -20 425.71 -55.39 830.85 <
3128 1 -6 -4 20 425.71 -55.39 830.85 <
3129 3 -7 -4 20 193.70 1384.73 672.12 o
3129 1 7 4 20 193.70 1384.73 672.12 o
3130 3 7 4 20 197.33 451.03 854.55 <
3130 1 -7 -4 20 197.33 451.03 854.55 <
3131 3 -8 -4 20 2811.44 3442.05 703.46 o
3131 2 -4 -8 -20 2811.44 3442.05 703.46 o
3131 1 8 4 20 2811.44 3442.05 703.46 o
3132 3 8 4 20 2810.05 2935.63 783.24 o
3132 2 4 8 -20 2810.05 2935.63 783.24 o
3132 1 -8 -4 20 2810.05 2935.63 783.24 o
3133 3 7 -6 20 519.30 656.76 799.16 <
3133 1 -7 6 20 519.30 656.76 799.16 <
3134 3 -7 6 20 516.74 783.36 498.40 <
3134 1 7 -6 20 516.74 783.36 498.40 <
3135 3 6 -6 20 4015.43 3616.13 855.04 o
3135 2 -6 6 -20 4015.43 3616.13 855.04 o
3135 1 -6 6 20 4015.43 3616.13 855.04 o
3136 3 -6 6 20 4017.25 2642.86 508.66 o
3136 2 6 -6 -20 4017.25 2642.86 508.66 o
3136 1 6 -6 20 4017.25 2642.86 508.66 o
3137 3 5 -6 20 307.13 1091.96 854.37 <
3137 1 -5 6 20 307.13 1091.96 854.37 <
3138 3 -5 6 20 309.36 7.91 514.35 <
3138 1 5 -6 20 309.36 7.91 514.35 <
3139 3 4 -6 20 493.01 379.81 783.38 <
3139 2 -6 4 -20 493.01 379.81 783.38 <
3139 1 -4 6 20 493.01 379.81 783.38 <
3140 3 -4 6 20 476.61 118.69 538.11 <
3140 2 6 -4 -20 476.61 118.69 538.11 <
3140 1 4 -6 20 476.61 118.69 538.11 <
3141 3 3 -6 20 1902.48 1479.69 736.13 o
3141 1 -3 6 20 1902.48 1479.69 736.13 o
3142 3 -3 6 20 1897.13 1685.42 490.79 o
3142 1 3 -6 20 1897.13 1685.42 490.79 o
3143 3 2 -6 20 20517.80 24537.50 824.97 o
3143 2 -6 2 -20 20517.80 24537.50 824.97 o
3143 1 -2 6 20 20517.80 24537.50 824.97 o
3144 3 -2 6 20 20498.90 21000.50 620.64 o
3144 2 6 -2 -20 20498.90 21000.50 620.64 o
3144 1 2 -6 20 20498.90 21000.50 620.64 o
3145 3 1 -6 20 1465.35 3054.32 877.10 o
3145 1 -1 6 20 1465.35 3054.32 877.10 o
3146 3 -1 6 20 1470.46 1772.46 577.40 o
3146 1 1 -6 20 1470.46 1772.46 577.40 o
3147 3 0 -6 20 2022.20 2318.44 901.86 o
3147 2 -6 0 -20 2022.20 2318.44 901.86 o
3147 1 0 6 20 2022.20 2318.44 901.86 o
3148 3 0 6 20 2034.18 1946.54 712.21 o
3148 2 6 0 -20 2034.18 1946.54 712.21 o
3148 1 0 -6 20 2034.18 1946.54 712.21 o
3149 3 -1 -6 20 1465.35 1337.26 957.49 <
3149 1 1 6 20 1465.35 1337.26 957.49 <
3150 3 1 6 20 1470.46 1503.42 902.04 <
3150 1 -1 -6 20 1470.46 1503.42 902.04 <
3151 3 -2 -6 20 20492.50 23603.70 929.60 o
3151 2 -6 -2 -20 20492.50 23603.70 929.60 o
3151 1 2 6 20 20492.50 23603.70 929.60 o
3152 3 2 6 20 20524.20 24490.00 923.37 o
3152 2 6 2 -20 20524.20 24490.00 923.37 o
3152 1 -2 -6 20 20524.20 24490.00 923.37 o
3153 3 -3 -6 20 1902.48 965.36 847.04 <
3153 1 3 6 20 1902.48 965.36 847.04 <
3154 3 3 6 20 1897.13 862.49 839.15 <
3154 1 -3 -6 20 1897.13 862.49 839.15 <
3155 3 -4 -6 20 469.56 791.28 838.68 <
3155 2 -6 -4 -20 469.56 791.28 838.68 <
3155 1 4 6 20 469.56 791.28 838.68 <
3156 3 4 6 20 500.05 1732.89 814.48 o
3156 2 6 4 -20 500.05 1732.89 814.48 o
3156 1 -4 -6 20 500.05 1732.89 814.48 o
3157 3 -5 -6 20 307.13 1962.36 933.04 o
3157 1 5 6 20 307.13 1962.36 933.04 o
3158 3 5 6 20 309.36 -973.27 925.59 <
3158 1 -5 -6 20 309.36 -973.27 925.59 <
3159 3 -6 -6 20 4018.53 1986.10 864.16 o
3159 2 -6 -6 -20 4018.53 1986.10 864.16 o
3159 1 6 6 20 4018.53 1986.10 864.16 o
3160 3 6 6 20 4014.16 4510.27 853.91 o
3160 2 6 6 -20 4014.16 4510.27 853.91 o
3160 1 -6 -6 20 4014.16 4510.27 853.91 o
3161 3 -7 -6 20 519.30 1693.33 862.02 <
3161 1 7 6 20 519.30 1693.33 862.02 <
3162 3 7 6 20 516.74 -47.48 846.69 <
3162 1 -7 -6 20 516.74 -47.48 846.69 <
3163 3 5 -8 20 360.97 2658.69 892.84 o
3163 1 -5 8 20 360.97 2658.69 892.84 o
3164 3 -5 8 20 360.15 1724.98 537.21 o
3164 1 5 -8 20 360.15 1724.98 537.21 o
3165 3 4 -8 20 3236.99 2081.05 894.99 o
3165 2 -8 4 -20 3236.99 2081.05 894.99 o
3165 1 -4 8 20 3236.99 2081.05 894.99 o
3166 3 -4 8 20 3237.03 3331.27 553.74 o
3166 2 8 -4 -20 3237.03 3331.27 553.74 o
3166 1 4 -8 20 3237.03 3331.27 553.74 o
3167 3 3 -8 20 207.29 229.47 799.19 <
3167 1 -3 8 20 207.29 229.47 799.19 <
3168 3 -3 8 20 209.43 633.02 609.19 <
3168 1 3 -8 20 209.43 633.02 609.19 <
3169 3 2 -8 20 644.64 1899.06 885.67 o
3169 2 -8 2 -20 644.64 1899.06 885.67 o
3169 1 -2 8 20 644.64 1899.06 885.67 o
3170 3 -2 8 20 641.34 490.59 625.14 <
3170 2 8 -2 -20 641.34 490.59 625.14 <
3170 1 2 -8 20 641.34 490.59 625.14 <
3171 3 1 -8 20 561.15 696.32 878.29 <
3171 1 -1 8 20 561.15 696.32 878.29 <
3172 3 -1 8 20 558.79 775.45 625.04 <
3172 1 1 -8 20 558.79 775.45 625.04 <
3173 3 0 -8 20 8311.09 8767.33 940.50 o
3173 2 -8 0 -20 8311.09 8767.33 940.50 o
3173 1 0 8 20 8311.09 8767.33 940.50 o
3174 3 0 8 20 8309.41 9131.32 804.69 o
3174 2 8 0 -20 8309.41 9131.32 804.69 o
3174 1 0 -8 20 8309.41 9131.32 804.69 o
3175 3 -1 -8 20 561.15 664.67 902.03 <
3175 1 1 8 20 561.15 664.67 902.03 <
3176 3 1 8 20 558.79 451.03 886.24 <
3176 1 -1 -8 20 558.79 451.03 886.24 <
3177 3 -2 -8 20 638.19 -451.03 862.46 <
3177 2 -8 -2 -20 638.19 -451.03 862.46 <
3177 1 2 8 20 638.19 -451.03 862.46 <
3178 3 2 8 20 647.79 -158.26 838.78 <
3178 2 8 2 -20 647.79 -158.26 838.78 <
3178 1 -2 -8 20 647.79 -158.26 838.78 <
3179 3 -3 -8 20 207.29 933.71 901.91 <
3179 1 3 8 20 207.29 933.71 901.91 <
3180 3 3 8 20 209.43 1630.03 877.82 <
3180 1 -3 -8 20 209.43 1630.03 877.82 <
3181 3 -4 -8 20 3237.52 1677.50 887.26 <
3181 2 -8 -4 -20 3237.52 1677.50 887.26 <
3181 1 4 8 20 3237.52 1677.50 887.26 <
3182 3 4 8 20 3236.50 3766.47 861.90 o
3182 2 8 4 -20 3236.50 3766.47 861.90 o
3182 1 -4 -8 20 3236.50 3766.47 861.90 o
3183 3 -5 -8 20 360.97 1582.55 909.55 <
3183 1 5 8 20 360.97 1582.55 909.55 <
3184 3 5 8 20 360.15 1131.52 862.28 <
3184 1 -5 -8 20 360.15 1131.52 862.28 <
3185 3 9 -1 21 634.06 720.06 799.17 <
3185 2 -1 9 -21 634.06 720.06 799.17 <
3185 1 -9 1 21 634.06 720.06 799.17 <
3186 3 -9 1 21 633.30 1645.85 505.72 o
3186 2 1 -9 -21 633.30 1645.85 505.72 o
3186 1 9 -1 21 633.30 1645.85 505.72 o
3187 3 8 -1 21 238.75 1542.99 854.13 <
3187 1 -8 1 21 238.75 1542.99 854.13 <
3188 3 -8 1 21 238.61 1202.74 490.13 o
3188 1 8 -1 21 238.61 1202.74 490.13 o
3189 3 7 -1 21 3436.46 4771.39 900.34 o
3189 2 -1 7 -21 3436.46 4771.39 900.34 o
3189 1 -7 1 21 3436.46 4771.39 900.34 o
3190 3 -7 1 21 3439.74 4233.32 536.50 o
3190 2 1 -7 -21 3439.74 4233.32 536.50 o
3190 1 7 -1 21 3439.74 4233.32 536.50 o
3191 3 6 -1 21 1693.30 1305.60 672.80 <
3191 1 -6 1 21 1693.30 1305.60 672.80 <
3192 3 -6 1 21 1696.81 1337.26 475.06 o
3192 1 6 -1 21 1696.81 1337.26 475.06 o
3193 3 5 -1 21 9220.63 8632.82 871.99 o
3193 2 -1 5 -21 9220.63 8632.82 871.99 o
3193 1 -5 1 21 9220.63 8632.82 871.99 o
3194 3 -5 1 21 9250.24 8767.33 555.97 o
3194 2 1 -5 -21 9250.24 8767.33 555.97 o
3194 1 5 -1 21 9250.24 8767.33 555.97 o
3195 3 4 -1 21 6560.37 5586.40 809.00 o
3195 1 -4 1 21 6560.37 5586.40 809.00 o
3196 3 -4 1 21 6558.85 5728.83 706.12 o
3196 1 4 -1 21 6558.85 5728.83 706.12 o
3197 3 3 -1 21 22366.90 21586.00 687.15 o
3197 2 -1 3 -21 22366.90 21586.00 687.15 o
3197 1 -3 1 21 22366.90 21586.00 687.15 o
3198 3 -3 1 21 22445.40 21293.20 729.25 o
3198 2 1 -3 -21 22445.40 21293.20 729.25 o
3198 1 3 -1 21 22445.40 21293.20 729.25 o
3199 3 2 -1 21 4695.93 5072.08 663.92 o
3199 1 -2 1 21 4695.93 5072.08 663.92 o
3200 3 -2 1 21 4693.34 5206.59 671.56 o
3200 1 2 -1 21 4693.34 5206.59 671.56 o
3201 3 1 -1 21 32122.70 34523.30 755.30 o
3201 2 -1 1 -21 32122.70 34523.30 755.30 o
3201 1 -1 1 21 32122.70 34523.30 755.30 o
3202 3 -1 1 21 32178.00 33993.20 811.15 o
3202 2 1 -1 -21 32178.00 33993.20 811.15 o
3202 1 1 -1 21 32178.00 33993.20 811.15 o
3203 3 -1 -1 21 32216.90 33217.70 836.23 o
3203 2 -1 -1 -21 32216.90 33217.70 836.23 o
3203 1 1 1 21 32216.90 33217.70 836.23 o
3204 3 1 1 21 32083.60 35599.50 807.64 o
3204 2 1 1 -21 32083.60 35599.50 807.64 o
3204 1 -1 -1 21 32083.60 35599.50 807.64 o
3205 3 -2 -1 21 4695.92 4383.67 681.05 o
3205 1 2 1 21 4695.92 4383.67 681.05 o
3206 3 2 1 21 4693.33 4834.69 640.65 o
3206 1 -2 -1 21 4693.33 4834.69 640.65 o
3207 3 -3 -1 21 22442.50 21522.70 798.01 o
3207 2 -1 -3 -21 22442.50 21522.70 798.01 o
3207 1 3 1 21 22442.50 21522.70 798.01 o
3208 3 3 1 21 22369.90 20399.10 727.52 o
3208 2 1 3 -21 22369.90 20399.10 727.52 o
3208 1 -3 -1 21 22369.90 20399.10 727.52 o
3209 3 -4 -1 21 6560.36 5792.14 713.89 o
3209 1 4 1 21 6560.36 5792.14 713.89 o
3210 3 4 1 21 6558.87 6733.75 648.37 o
3210 1 -4 -1 21 6558.87 6733.75 648.37 o
3211 3 -5 -1 21 9243.76 9123.41 712.56 o
3211 2 -1 -5 -21 9243.76 9123.41 712.56 o
3211 1 5 1 21 9243.76 9123.41 712.56 o
3212 3 5 1 21 9227.06 10239.10 628.78 o
3212 2 1 5 -21 9227.06 10239.10 628.78 o
3212 1 -5 -1 21 9227.06 10239.10 628.78 o
3213 3 -6 -1 21 1693.30 2207.66 719.67 o
3213 1 6 1 21 1693.30 2207.66 719.67 o
3214 3 6 1 21 1696.80 1226.48 649.11 <
3214 1 -6 -1 21 1696.80 1226.48 649.11 <
3215 3 -7 -1 21 3439.28 3813.95 672.04 o
3215 2 -1 -7 -21 3439.28 3813.95 672.04 o
3215 1 7 1 21 3439.28 3813.95 672.04 o
3216 3 -8 -1 21 238.75 332.34 451.01 <
3216 1 8 1 21 238.75 332.34 451.01 <
3217 3 -9 -1 21 634.15 1400.56 466.35 o
3217 2 -1 -9 -21 634.15 1400.56 466.35 o
3217 1 9 1 21 634.15 1400.56 466.35 o
3218 3 9 -3 21 708.67 1511.34 957.16 <
3218 2 -3 9 -21 708.67 1511.34 957.16 <
3218 1 -9 3 21 708.67 1511.34 957.16 <
3219 3 -9 3 21 708.84 1978.19 552.94 o
3219 2 3 -9 -21 708.84 1978.19 552.94 o
3219 1 9 -3 21 708.84 1978.19 552.94 o
3220 3 8 -3 21 45.78 704.23 814.91 <
3220 1 -8 3 21 45.78 704.23 814.91 <
3221 3 -8 3 21 46.21 -300.68 514.30 <
3221 1 8 -3 21 46.21 -300.68 514.30 <
3222 3 7 -3 21 1655.39 1606.29 735.91 o
3222 2 -3 7 -21 1655.39 1606.29 735.91 o
3222 1 -7 3 21 1655.39 1606.29 735.91 o
3223 3 -7 3 21 1654.91 1709.16 506.37 o
3223 2 3 -7 -21 1654.91 1709.16 506.37 o
3223 1 7 -3 21 1654.91 1709.16 506.37 o
3224 3 6 -3 21 942.26 1788.28 767.09 o
3224 1 -6 3 21 942.26 1788.28 767.09 o
3225 3 -6 3 21 942.65 648.85 474.89 <
3225 1 6 -3 21 942.65 648.85 474.89 <
3226 3 5 -3 21 8085.68 8221.35 806.73 o
3226 2 -3 5 -21 8085.68 8221.35 806.73 o
3226 1 -5 3 21 8085.68 8221.35 806.73 o
3227 3 -5 3 21 8094.38 8387.52 552.72 o
3227 2 3 -5 -21 8094.38 8387.52 552.72 o
3227 1 5 -3 21 8094.38 8387.52 552.72 o
3228 3 4 -3 21 1339.61 941.62 767.69 <
3228 1 -4 3 21 1339.61 941.62 767.69 <
3229 3 -4 3 21 1343.76 1202.74 498.60 o
3229 1 4 -3 21 1343.76 1202.74 498.60 o
3230 3 3 -3 21 13131.90 12565.50 888.40 o
3230 2 -3 3 -21 13131.90 12565.50 888.40 o
3230 1 -3 3 21 13131.90 12565.50 888.40 o
3231 3 -3 3 21 13124.00 11718.80 530.91 o
3231 2 3 -3 -21 13124.00 11718.80 530.91 o
3231 1 3 -3 21 13124.00 11718.80 530.91 o
3232 3 2 -3 21 1173.73 1353.08 807.02 <
3232 1 -2 3 21 1173.73 1353.08 807.02 <
3233 3 -2 3 21 1174.11 1780.37 529.67 o
3233 1 2 -3 21 1174.11 1780.37 529.67 o
3234 3 1 -3 21 23078.30 21237.80 921.68 o
3234 2 -3 1 -21 23078.30 21237.80 921.68 o
3234 1 -1 3 21 23078.30 21237.80 921.68 o
3235 3 -1 3 21 23039.90 21696.80 668.73 o
3235 2 3 -1 -21 23039.90 21696.80 668.73 o
3235 1 1 -3 21 23039.90 21696.80 668.73 o
3236 3 -1 -3 21 23071.10 20256.70 935.05 o
3236 2 -3 -1 -21 23071.10 20256.70 935.05 o
3236 1 1 3 21 23071.10 20256.70 935.05 o
3237 3 1 3 21 23047.20 25843.10 929.77 o
3237 2 3 1 -21 23047.20 25843.10 929.77 o
3237 1 -1 -3 21 23047.20 25843.10 929.77 o
3238 3 -2 -3 21 1173.74 577.63 807.25 <
3238 1 2 3 21 1173.74 577.63 807.25 <
3239 3 2 3 21 1174.12 1368.91 894.07 <
3239 1 -2 -3 21 1174.12 1368.91 894.07 <
3240 3 -3 -3 21 13118.50 12715.80 864.09 o
3240 2 -3 -3 -21 13118.50 12715.80 864.09 o
3240 1 3 3 21 13118.50 12715.80 864.09 o
3241 3 3 3 21 13137.50 13261.80 822.39 o
3241 2 3 3 -21 13137.50 13261.80 822.39 o
3241 1 -3 -3 21 13137.50 13261.80 822.39 o
3242 3 -4 -3 21 1339.61 949.53 807.24 <
3242 1 4 3 21 1339.61 949.53 807.24 <
3243 3 4 3 21 1343.77 1709.16 878.14 <
3243 1 -4 -3 21 1343.77 1709.16 878.14 <
3244 3 -5 -3 21 8083.58 8110.57 791.20 o
3244 2 -3 -5 -21 8083.58 8110.57 791.20 o
3244 1 5 3 21 8083.58 8110.57 791.20 o
3245 3 5 3 21 8096.48 10207.50 896.10 o
3245 2 3 5 -21 8096.48 10207.50 896.10 o
3245 1 -5 -3 21 8096.48 10207.50 896.10 o
3246 3 -6 -3 21 942.26 886.23 625.13 <
3246 1 6 3 21 942.26 886.23 625.13 <
3247 3 6 3 21 942.65 1566.73 743.49 o
3247 1 -6 -3 21 942.65 1566.73 743.49 o
3248 3 -7 -3 21 1656.75 2903.98 623.78 o
3248 2 -3 -7 -21 1656.75 2903.98 623.78 o
3248 1 7 3 21 1656.75 2903.98 623.78 o
3249 3 7 3 21 1653.55 2516.26 751.03 o
3249 2 3 7 -21 1653.55 2516.26 751.03 o
3249 1 -7 -3 21 1653.55 2516.26 751.03 o
3250 3 -8 -3 21 45.78 846.66 609.08 <
3250 1 8 3 21 45.78 846.66 609.08 <
3251 3 8 3 21 46.21 704.23 830.74 <
3251 1 -8 -3 21 46.21 704.23 830.74 <
3252 3 -9 -3 21 709.16 1550.90 648.41 o
3252 2 -3 -9 -21 709.16 1550.90 648.41 o
3252 1 9 3 21 709.16 1550.90 648.41 o
3253 3 8 -5 21 138.66 2120.62 806.14 o
3253 1 -8 5 21 138.66 2120.62 806.14 o
3254 3 -8 5 21 138.71 514.33 522.17 <
3254 1 8 -5 21 138.71 514.33 522.17 <
3255 3 7 -5 21 1690.75 1076.13 862.73 <
3255 2 -5 7 -21 1690.75 1076.13 862.73 <
3255 1 -7 5 21 1690.75 1076.13 862.73 <
3256 3 -7 5 21 1692.66 2358.00 529.44 o
3256 2 5 -7 -21 1692.66 2358.00 529.44 o
3256 1 7 -5 21 1692.66 2358.00 529.44 o
3257 3 6 -5 21 48.09 427.29 838.72 <
3257 1 -6 5 21 48.09 427.29 838.72 <
3258 3 -6 5 21 48.75 633.02 466.71 <
3258 1 6 -5 21 48.75 633.02 466.71 <
3259 3 5 -5 21 2400.36 3204.67 822.16 o
3259 2 -5 5 -21 2400.36 3204.67 822.16 o
3259 1 -5 5 21 2400.36 3204.67 822.16 o
3260 3 -5 5 21 2400.67 2334.26 482.76 o
3260 2 5 -5 -21 2400.67 2334.26 482.76 o
3260 1 5 -5 21 2400.67 2334.26 482.76 o
3261 3 4 -5 21 383.96 292.77 743.81 <
3261 1 -4 5 21 383.96 292.77 743.81 <
3262 3 -4 5 21 383.71 -451.03 498.43 <
3262 1 4 -5 21 383.71 -451.03 498.43 <
3263 3 3 -5 21 8701.02 7999.79 856.38 o
3263 2 -5 3 -21 8701.02 7999.79 856.38 o
3263 1 -3 5 21 8701.02 7999.79 856.38 o
3264 3 -3 5 21 8675.70 8300.48 500.19 o
3264 2 5 -3 -21 8675.70 8300.48 500.19 o
3264 1 3 -5 21 8675.70 8300.48 500.19 o
3265 3 2 -5 21 34.09 577.63 894.08 <
3265 1 -2 5 21 34.09 577.63 894.08 <
3266 3 -2 5 21 34.63 181.99 466.84 <
3266 1 2 -5 21 34.63 181.99 466.84 <
3267 3 1 -5 21 10432.80 10547.70 980.85 o
3267 2 -5 1 -21 10432.80 10547.70 980.85 o
3267 1 -1 5 21 10432.80 10547.70 980.85 o
3268 3 -1 5 21 10407.60 8878.11 592.05 o
3268 2 5 -1 -21 10407.60 8878.11 592.05 o
3268 1 1 -5 21 10407.60 8878.11 592.05 o
3269 3 -1 -5 21 10417.10 10262.80 870.89 o
3269 2 -5 -1 -21 10417.10 10262.80 870.89 o
3269 1 1 5 21 10417.10 10262.80 870.89 o
3270 3 1 5 21 10423.20 8506.21 970.19 o
3270 2 5 1 -21 10423.20 8506.21 970.19 o
3270 1 -1 -5 21 10423.20 8506.21 970.19 o
3271 3 -2 -5 21 34.09 838.75 933.57 <
3271 1 2 5 21 34.09 838.75 933.57 <
3272 3 2 5 21 34.63 -63.30 917.88 <
3272 1 -2 -5 21 34.63 -63.30 917.88 <
3273 3 -3 -5 21 8674.84 9740.60 914.97 o
3273 2 -5 -3 -21 8674.84 9740.60 914.97 o
3273 1 3 5 21 8674.84 9740.60 914.97 o
3274 3 3 5 21 8701.89 8253.00 918.97 o
3274 2 5 3 -21 8701.89 8253.00 918.97 o
3274 1 -3 -5 21 8701.89 8253.00 918.97 o
3275 3 -4 -5 21 383.96 1123.61 822.72 <
3275 1 4 5 21 383.96 1123.61 822.72 <
3276 3 4 5 21 383.71 31.65 807.12 <
3276 1 -4 -5 21 383.71 31.65 807.12 <
3277 3 -5 -5 21 2400.89 2049.40 862.73 o
3277 2 -5 -5 -21 2400.89 2049.40 862.73 o
3277 1 5 5 21 2400.89 2049.40 862.73 o
3278 3 5 5 21 2400.14 4320.36 804.76 o
3278 2 5 5 -21 2400.14 4320.36 804.76 o
3278 1 -5 -5 21 2400.14 4320.36 804.76 o
3279 3 -6 -5 21 48.09 538.07 886.17 <
3279 1 6 5 21 48.09 538.07 886.17 <
3280 3 6 5 21 48.75 -482.68 870.35 <
3280 1 -6 -5 21 48.75 -482.68 870.35 <
3281 3 -7 -5 21 1693.21 2144.36 909.70 o
3281 2 -5 -7 -21 1693.21 2144.36 909.70 o
3281 1 7 5 21 1693.21 2144.36 909.70 o
3282 3 7 5 21 1690.21 696.32 846.99 <
3282 2 5 7 -21 1690.21 696.32 846.99 <
3282 1 -7 -5 21 1690.21 696.32 846.99 <
3283 3 -8 -5 21 138.66 1004.92 798.98 <
3283 1 8 5 21 138.66 1004.92 798.98 <
3284 3 8 5 21 138.71 363.99 878.30 <
3284 1 -8 -5 21 138.71 363.99 878.30 <
3285 3 6 -7 21 116.23 -1107.79 862.22 <
3285 1 -6 7 21 116.23 -1107.79 862.22 <
3286 3 -6 7 21 115.99 451.03 514.27 <
3286 1 6 -7 21 115.99 451.03 514.27 <
3287 3 5 -7 21 1815.82 2405.48 806.67 o
3287 2 -7 5 -21 1815.82 2405.48 806.67 o
3287 1 -5 7 21 1815.82 2405.48 806.67 o
3288 3 -5 7 21 1816.14 1717.07 498.60 o
3288 2 7 -5 -21 1816.14 1717.07 498.60 o
3288 1 5 -7 21 1816.14 1717.07 498.60 o
3289 3 4 -7 21 5.75 1345.17 830.45 <
3289 1 -4 7 21 5.75 1345.17 830.45 <
3290 3 -4 7 21 5.93 609.28 490.46 <
3290 1 4 -7 21 5.93 609.28 490.46 <
3291 3 3 -7 21 1962.85 1819.93 894.22 o
3291 2 -7 3 -21 1962.85 1819.93 894.22 o
3291 1 -3 7 21 1962.85 1819.93 894.22 o
3292 3 -3 7 21 1966.71 2168.09 514.11 o
3292 2 7 -3 -21 1966.71 2168.09 514.11 o
3292 1 3 -7 21 1966.71 2168.09 514.11 o
3293 3 2 -7 21 42.44 -1258.13 822.58 <
3293 1 -2 7 21 42.44 -1258.13 822.58 <
3294 3 -2 7 21 43.27 1242.30 553.41 o
3294 1 2 -7 21 43.27 1242.30 553.41 o
3295 3 1 -7 21 4190.76 5159.12 845.19 o
3295 2 -7 1 -21 4190.76 5159.12 845.19 o
3295 1 -1 7 21 4190.76 5159.12 845.19 o
3296 3 -1 7 21 4188.49 4280.80 624.94 o
3296 2 7 -1 -21 4188.49 4280.80 624.94 o
3296 1 1 -7 21 4188.49 4280.80 624.94 o
3297 3 -1 -7 21 4189.65 4597.31 782.74 o
3297 2 -7 -1 -21 4189.65 4597.31 782.74 o
3297 1 1 7 21 4189.65 4597.31 782.74 o
3298 3 1 7 21 4189.61 3141.36 832.01 o
3298 2 7 1 -21 4189.61 3141.36 832.01 o
3298 1 -1 -7 21 4189.61 3141.36 832.01 o
3299 3 -2 -7 21 42.44 1630.03 869.87 <
3299 1 2 7 21 42.44 1630.03 869.87 <
3300 3 2 7 21 43.27 1297.69 862.15 <
3300 1 -2 -7 21 43.27 1297.69 862.15 <
3301 3 -3 -7 21 1967.27 1171.09 926.12 <
3301 2 -7 -3 -21 1967.27 1171.09 926.12 <
3301 1 3 7 21 1967.27 1171.09 926.12 <
3302 3 3 7 21 1962.29 4320.36 788.46 o
3302 2 7 3 -21 1962.29 4320.36 788.46 o
3302 1 -3 -7 21 1962.29 4320.36 788.46 o
3303 3 -4 -7 21 5.75 150.34 870.40 <
3303 1 4 7 21 5.75 150.34 870.40 <
3304 3 4 7 21 5.93 -530.16 846.60 <
3304 1 -4 -7 21 5.93 -530.16 846.60 <
3305 3 -5 -7 21 1817.15 2421.30 854.16 o
3305 2 -7 -5 -21 1817.15 2421.30 854.16 o
3305 1 5 7 21 1817.15 2421.30 854.16 o
3306 3 5 7 21 1814.81 1163.17 846.95 <
3306 2 7 5 -21 1814.81 1163.17 846.95 <
3306 1 -5 -7 21 1814.81 1163.17 846.95 <
3307 3 -6 -7 21 116.23 1147.35 901.81 <
3307 1 6 7 21 116.23 1147.35 901.81 <
3308 3 6 7 21 115.99 490.59 862.45 <
3308 1 -6 -7 21 115.99 490.59 862.45 <
3309 3 3 -9 21 868.64 1368.91 909.79 <
3309 2 -9 3 -21 868.64 1368.91 909.79 <
3309 1 -3 9 21 868.64 1368.91 909.79 <
3310 3 -3 9 21 869.22 1669.59 592.95 o
3310 2 9 -3 -21 869.22 1669.59 592.95 o
3310 1 3 -9 21 869.22 1669.59 592.95 o
3311 3 2 -9 21 0.25 150.34 949.53 <
3311 1 -2 9 21 0.25 150.34 949.53 <
3312 3 -2 9 21 0.27 1384.73 711.67 <
3312 1 2 -9 21 0.27 1384.73 711.67 <
3313 3 1 -9 21 823.15 2342.18 901.23 o
3313 2 -9 1 -21 823.15 2342.18 901.23 o
3313 1 -1 9 21 823.15 2342.18 901.23 o
3314 3 -1 9 21 825.16 609.28 751.76 <
3314 2 9 -1 -21 825.16 609.28 751.76 <
3314 1 1 -9 21 825.16 609.28 751.76 <
3315 3 -1 -9 21 825.20 1582.55 925.50 <
3315 2 -9 -1 -21 825.20 1582.55 925.50 <
3315 1 1 9 21 825.20 1582.55 925.50 <
3316 3 1 9 21 823.11 2049.40 758.92 o
3316 2 9 1 -21 823.11 2049.40 758.92 o
3316 1 -1 -9 21 823.11 2049.40 758.92 o
3317 3 -2 -9 21 0.25 -688.41 878.22 <
3317 1 2 9 21 0.25 -688.41 878.22 <
3318 3 2 9 21 0.27 -158.26 838.75 <
3318 1 -2 -9 21 0.27 -158.26 838.75 <
3319 3 -3 -9 21 869.42 1297.69 909.82 <
3319 2 -9 -3 -21 869.42 1297.69 909.82 <
3319 1 3 9 21 869.42 1297.69 909.82 <
3320 3 3 9 21 868.44 1772.46 854.16 o
3320 2 9 3 -21 868.44 1772.46 854.16 o
3320 1 -3 -9 21 868.44 1772.46 854.16 o
3321 3 0 0 22 130145.00 136732.00 918.54 o
3321 2 0 0 -22 130145.00 136732.00 918.54 o
3321 1 0 0 22 130145.00 136732.00 918.54 o
3322 3 -1 0 22 7263.83 8118.49 749.33 o
3322 1 1 0 22 7263.83 8118.49 749.33 o
3323 3 1 0 22 7263.83 8616.99 763.69 o
3323 1 -1 0 22 7263.83 8616.99 763.69 o
3324 3 -2 0 22 32943.10 34151.40 841.76 o
3324 2 0 -2 -22 32943.10 34151.40 841.76 o
3324 1 2 0 22 32943.10 34151.40 841.76 o
3325 3 2 0 22 32991.40 34009.00 811.75 o
3325 2 0 2 -22 32991.40 34009.00 811.75 o
3325 1 -2 0 22 32991.40 34009.00 811.75 o
3326 3 -3 0 22 158.62 569.72 664.60 <
3326 1 3 0 22 158.62 569.72 664.60 <
3327 3 3 0 22 158.62 807.10 601.20 <
3327 1 -3 0 22 158.62 807.10 601.20 <
3328 3 -4 0 22 27191.80 26555.20 812.71 o
3328 2 0 -4 -22 27191.80 26555.20 812.71 o
3328 1 4 0 22 27191.80 26555.20 812.71 o
3329 3 4 0 22 27193.00 27378.10 726.12 o
3329 2 0 4 -22 27193.00 27378.10 726.12 o
3329 1 -4 0 22 27193.00 27378.10 726.12 o
3330 3 -5 0 22 5126.63 4929.65 720.42 o
3330 1 5 0 22 5126.63 4929.65 720.42 o
3331 3 5 0 22 5126.61 4660.61 602.36 o
3331 1 -5 0 22 5126.61 4660.61 602.36 o
3332 3 -6 0 22 728.79 300.68 664.75 <
3332 2 0 -6 -22 728.79 300.68 664.75 <
3332 1 6 0 22 728.79 300.68 664.75 <
3333 3 6 0 22 729.39 743.80 854.57 <
3333 2 0 6 -22 729.39 743.80 854.57 <
3333 1 -6 0 22 729.39 743.80 854.57 <
3334 3 -7 0 22 13.10 -221.56 522.22 <
3334 1 7 0 22 13.10 -221.56 522.22 <
3335 3 7 0 22 13.10 110.78 735.88 <
3335 1 -7 0 22 13.10 110.78 735.88 <
3336 3 -8 0 22 989.83 545.98 538.22 <
3336 2 0 -8 -22 989.83 545.98 538.22 <
3336 1 8 0 22 989.83 545.98 538.22 <
3337 3 8 0 22 985.48 498.50 838.85 <
3337 2 0 8 -22 985.48 498.50 838.85 <
3337 1 -8 0 22 985.48 498.50 838.85 <
3338 3 -9 0 22 88.18 1068.22 553.54 <
3338 1 9 0 22 88.18 1068.22 553.54 <
3339 3 9 -2 22 63.84 656.76 822.84 <
3339 1 -9 2 22 63.84 656.76 822.84 <
3340 3 -9 2 22 63.20 1527.16 513.54 o
3340 1 9 -2 22 63.20 1527.16 513.54 o
3341 3 8 -2 22 120.39 -269.03 799.17 <
3341 2 -2 8 -22 120.39 -269.03 799.17 <
3341 1 -8 2 22 120.39 -269.03 799.17 <
3342 3 -8 2 22 119.47 150.34 506.41 <
3342 2 2 -8 -22 119.47 150.34 506.41 <
3342 1 8 -2 22 119.47 150.34 506.41 <
3343 3 7 -2 22 820.47 213.64 807.18 <
3343 1 -7 2 22 820.47 213.64 807.18 <
3344 3 -7 2 22 825.53 838.75 530.15 <
3344 1 7 -2 22 825.53 838.75 530.15 <
3345 3 6 -2 22 4901.28 3782.30 824.43 o
3345 2 -2 6 -22 4901.28 3782.30 824.43 o
3345 1 -6 2 22 4901.28 3782.30 824.43 o
3346 3 -6 2 22 4917.48 3457.87 517.30 o
3346 2 2 -6 -22 4917.48 3457.87 517.30 o
3346 1 6 -2 22 4917.48 3457.87 517.30 o
3347 3 5 -2 22 32.42 427.29 704.19 <
3347 1 -5 2 22 32.42 427.29 704.19 <
3348 3 -5 2 22 32.69 1368.91 482.00 o
3348 1 5 -2 22 32.69 1368.91 482.00 o
3349 3 4 -2 22 5200.65 5879.18 885.07 o
3349 2 -2 4 -22 5200.65 5879.18 885.07 o
3349 1 -4 2 22 5200.65 5879.18 885.07 o
3350 3 -4 2 22 5204.24 5261.98 537.92 o
3350 2 2 -4 -22 5204.24 5261.98 537.92 o
3350 1 4 -2 22 5204.24 5261.98 537.92 o
3351 3 3 -2 22 6666.01 5048.34 817.97 o
3351 1 -3 2 22 6666.01 5048.34 817.97 o
3352 3 -3 2 22 6658.11 6084.91 579.29 o
3352 1 3 -2 22 6658.11 6084.91 579.29 o
3353 3 2 -2 22 60213.40 65153.60 1264.84 o
3353 2 -2 2 -22 60213.40 65153.60 1264.84 o
3353 1 -2 2 22 60213.40 65153.60 1264.84 o
3354 3 -2 2 22 60241.50 59575.10 905.95 o
3354 2 2 -2 -22 60241.50 59575.10 905.95 o
3354 1 2 -2 22 60241.50 59575.10 905.95 o
3355 3 1 -2 22 1027.86 1091.96 664.64 <
3355 1 -1 2 22 1027.86 1091.96 664.64 <
3356 3 -1 2 22 1031.56 1574.64 735.61 o
3356 1 1 -2 22 1031.56 1574.64 735.61 o
3357 3 0 -2 22 34277.80 36335.40 831.37 o
3357 2 -2 0 -22 34277.80 36335.40 831.37 o
3357 1 0 2 22 34277.80 36335.40 831.37 o
3358 3 0 2 22 34297.70 35781.50 878.39 o
3358 2 2 0 -22 34297.70 35781.50 878.39 o
3358 1 0 -2 22 34297.70 35781.50 878.39 o
3359 3 -1 -2 22 1027.87 807.10 688.48 <
3359 1 1 2 22 1027.87 807.10 688.48 <
3360 3 1 2 22 1031.56 1139.44 735.84 <
3360 1 -1 -2 22 1031.56 1139.44 735.84 <
3361 3 -2 -2 22 60261.20 61545.40 1169.15 o
3361 2 -2 -2 -22 60261.20 61545.40 1169.15 o
3361 1 2 2 22 60261.20 61545.40 1169.15 o
3362 3 2 2 22 60193.70 58847.20 1142.40 o
3362 2 2 2 -22 60193.70 58847.20 1142.40 o
3362 1 -2 -2 22 60193.70 58847.20 1142.40 o
3363 3 -3 -2 22 6666.02 6512.20 831.16 o
3363 1 3 2 22 6666.02 6512.20 831.16 o
3364 3 3 2 22 6658.10 6630.89 783.42 o
3364 1 -3 -2 22 6658.10 6630.89 783.42 o
3365 3 -4 -2 22 5221.84 5594.32 814.35 o
3365 2 -2 -4 -22 5221.84 5594.32 814.35 o
3365 1 4 2 22 5221.84 5594.32 814.35 o
3366 3 4 2 22 5183.04 5942.48 702.60 o
3366 2 2 4 -22 5183.04 5942.48 702.60 o
3366 1 -4 -2 22 5183.04 5942.48 702.60 o
3367 3 -5 -2 22 32.42 -15.83 585.54 <
3367 1 5 2 22 32.42 -15.83 585.54 <
3368 3 5 2 22 32.70 -625.11 846.58 <
3368 1 -5 -2 22 32.70 -625.11 846.58 <
3369 3 -6 -2 22 4922.27 3806.03 579.78 o
3369 2 -2 -6 -22 4922.27 3806.03 579.78 o
3369 1 6 2 22 4922.27 3806.03 579.78 o
3370 3 6 2 22 4896.48 3893.08 832.20 o
3370 2 2 6 -22 4896.48 3893.08 832.20 o
3370 1 -6 -2 22 4896.48 3893.08 832.20 o
3371 3 -7 -2 22 820.47 379.81 561.92 <
3371 1 7 2 22 820.47 379.81 561.92 <
3372 3 7 2 22 825.53 -538.07 822.89 <
3372 1 -7 -2 22 825.53 -538.07 822.89 <
3373 3 -8 -2 22 120.74 340.25 577.60 <
3373 2 -2 -8 -22 120.74 340.25 577.60 <
3373 1 8 2 22 120.74 340.25 577.60 <
3374 3 -9 -2 22 63.84 1004.92 482.32 o
3374 1 9 2 22 63.84 1004.92 482.32 o
3375 3 8 -4 22 874.04 1345.17 830.66 <
3375 2 -4 8 -22 874.04 1345.17 830.66 <
3375 1 -8 4 22 874.04 1345.17 830.66 <
3376 3 -8 4 22 876.21 569.72 522.35 <
3376 2 4 -8 -22 876.21 569.72 522.35 <
3376 1 8 -4 22 876.21 569.72 522.35 <
3377 3 7 -4 22 96.19 474.77 814.97 <
3377 1 -7 4 22 96.19 474.77 814.97 <
3378 3 -7 4 22 94.36 371.90 514.29 <
3378 1 7 -4 22 94.36 371.90 514.29 <
3379 3 6 -4 22 507.93 261.12 712.18 <
3379 2 -4 6 -22 507.93 261.12 712.18 <
3379 1 -6 4 22 507.93 261.12 712.18 <
3380 3 -6 4 22 509.87 158.26 451.08 <
3380 2 4 -6 -22 509.87 158.26 451.08 <
3380 1 6 -4 22 509.87 158.26 451.08 <
3381 3 5 -4 22 1328.69 1780.37 759.37 o
3381 1 -5 4 22 1328.69 1780.37 759.37 o
3382 3 -5 4 22 1334.02 356.07 506.77 <
3382 1 5 -4 22 1334.02 356.07 506.77 <
3383 3 4 -4 22 9881.89 9400.35 832.32 o
3383 2 -4 4 -22 9881.89 9400.35 832.32 o
3383 1 -4 4 22 9881.89 9400.35 832.32 o
3384 3 -4 4 22 9911.94 8490.39 513.08 o
3384 2 4 -4 -22 9911.94 8490.39 513.08 o
3384 1 4 -4 22 9911.94 8490.39 513.08 o
3385 3 3 -4 22 285.78 1179.00 885.99 <
3385 1 -3 4 22 285.78 1179.00 885.99 <
3386 3 -3 4 22 284.85 348.16 474.75 <
3386 1 3 -4 22 284.85 348.16 474.75 <
3387 3 2 -4 22 5278.68 5807.96 901.17 o
3387 2 -4 2 -22 5278.68 5807.96 901.17 o
3387 1 -2 4 22 5278.68 5807.96 901.17 o
3388 3 -2 4 22 5312.63 5657.62 505.41 o
3388 2 4 -2 -22 5312.63 5657.62 505.41 o
3388 1 2 -4 22 5312.63 5657.62 505.41 o
3389 3 1 -4 22 1968.53 1535.07 831.07 <
3389 1 -1 4 22 1968.53 1535.07 831.07 <
3390 3 -1 4 22 1968.79 1899.06 553.96 o
3390 1 1 -4 22 1968.79 1899.06 553.96 o
3391 3 0 -4 22 28214.00 28303.90 972.57 o
3391 2 -4 0 -22 28214.00 28303.90 972.57 o
3391 1 0 4 22 28214.00 28303.90 972.57 o
3392 3 0 4 22 28214.60 28897.40 776.67 o
3392 2 4 0 -22 28214.60 28897.40 776.67 o
3392 1 0 -4 22 28214.60 28897.40 776.67 o
3393 3 -1 -4 22 1968.53 1598.38 862.69 <
3393 1 1 4 22 1968.53 1598.38 862.69 <
3394 3 1 4 22 1968.78 3355.01 853.33 o
3394 1 -1 -4 22 1968.78 3355.01 853.33 o
3395 3 -2 -4 22 5321.36 5989.96 861.30 o
3395 2 -4 -2 -22 5321.36 5989.96 861.30 o
3395 1 2 4 22 5321.36 5989.96 861.30 o
3396 3 2 4 22 5269.96 6828.71 859.44 o
3396 2 4 2 -22 5269.96 6828.71 859.44 o
3396 1 -2 -4 22 5269.96 6828.71 859.44 o
3397 3 -3 -4 22 285.78 110.78 894.15 <
3397 1 3 4 22 285.78 110.78 894.15 <
3398 3 3 4 22 284.85 1305.60 893.85 <
3398 1 -3 -4 22 284.85 1305.60 893.85 <
3399 3 -4 -4 22 9933.03 11069.90 922.28 o
3399 2 -4 -4 -22 9933.03 11069.90 922.28 o
3399 1 4 4 22 9933.03 11069.90 922.28 o
3400 3 4 4 22 9860.81 10832.60 930.78 o
3400 2 4 4 -22 9860.81 10832.60 930.78 o
3400 1 -4 -4 22 9860.81 10832.60 930.78 o
3401 3 -5 -4 22 1328.69 474.77 767.76 <
3401 1 5 4 22 1328.69 474.77 767.76 <
3402 3 5 4 22 1334.02 1535.07 767.43 <
3402 1 -5 -4 22 1334.02 1535.07 767.43 <
3403 3 -6 -4 22 511.74 909.97 973.18 <
3403 2 -4 -6 -22 511.74 909.97 973.18 <
3403 1 6 4 22 511.74 909.97 973.18 <
3404 3 6 4 22 506.05 395.64 807.12 <
3404 2 4 6 -22 506.05 395.64 807.12 <
3404 1 -6 -4 22 506.05 395.64 807.12 <
3405 3 -7 -4 22 96.19 712.15 727.86 <
3405 1 7 4 22 96.19 712.15 727.86 <
3406 3 7 4 22 94.35 1194.83 854.29 <
3406 1 -7 -4 22 94.35 1194.83 854.29 <
3407 3 -8 -4 22 876.70 1693.33 703.80 o
3407 2 -4 -8 -22 876.70 1693.33 703.80 o
3407 1 8 4 22 876.70 1693.33 703.80 o
3408 3 8 4 22 873.54 1804.11 909.56 <
3408 2 4 8 -22 873.54 1804.11 909.56 <
3408 1 -8 -4 22 873.54 1804.11 909.56 <
3409 3 7 -6 22 244.61 894.14 830.70 <
3409 1 -7 6 22 244.61 894.14 830.70 <
3410 3 -7 6 22 245.77 1163.17 529.76 o
3410 1 7 -6 22 245.77 1163.17 529.76 o
3411 3 6 -6 22 1528.26 1780.37 830.70 o
3411 2 -6 6 -22 1528.26 1780.37 830.70 o
3411 1 -6 6 22 1528.26 1780.37 830.70 o
3412 3 -6 6 22 1528.61 1400.56 538.16 o
3412 2 6 -6 -22 1528.61 1400.56 538.16 o
3412 1 6 -6 22 1528.61 1400.56 538.16 o
3413 3 5 -6 22 86.70 791.28 759.49 <
3413 1 -5 6 22 86.70 791.28 759.49 <
3414 3 -5 6 22 84.89 324.42 538.04 <
3414 1 5 -6 22 84.89 324.42 538.04 <
3415 3 4 -6 22 512.50 0.00 870.43 <
3415 2 -6 4 -22 512.50 0.00 870.43 <
3415 1 -4 6 22 512.50 0.00 870.43 <
3416 3 -4 6 22 515.47 205.73 514.38 <
3416 2 6 -4 -22 515.47 205.73 514.38 <
3416 1 4 -6 22 515.47 205.73 514.38 <
3417 3 3 -6 22 681.46 -181.99 854.61 <
3417 1 -3 6 22 681.46 -181.99 854.61 <
3418 3 -3 6 22 685.34 110.78 530.24 <
3418 1 3 -6 22 685.34 110.78 530.24 <
3419 3 2 -6 22 4878.37 5230.33 854.02 o
3419 2 -6 2 -22 4878.37 5230.33 854.02 o
3419 1 -2 6 22 4878.37 5230.33 854.02 o
3420 3 -2 6 22 4881.36 4676.44 578.08 o
3420 2 6 -2 -22 4881.36 4676.44 578.08 o
3420 1 2 -6 22 4881.36 4676.44 578.08 o
3421 3 1 -6 22 481.23 530.16 807.09 <
3421 1 -1 6 22 481.23 530.16 807.09 <
3422 3 -1 6 22 479.31 656.76 545.93 <
3422 1 1 -6 22 479.31 656.76 545.93 <
3423 3 0 -6 22 576.92 1281.87 830.60 <
3423 2 -6 0 -22 576.92 1281.87 830.60 <
3423 1 0 6 22 576.92 1281.87 830.60 <
3424 3 0 6 22 577.18 15.83 720.10 <
3424 2 6 0 -22 577.18 15.83 720.10 <
3424 1 0 -6 22 577.18 15.83 720.10 <
3425 3 -1 -6 22 481.24 1432.21 814.67 <
3425 1 1 6 22 481.24 1432.21 814.67 <
3426 3 1 6 22 479.31 1273.95 838.50 <
3426 1 -1 -6 22 479.31 1273.95 838.50 <
3427 3 -2 -6 22 4890.00 4185.85 816.03 o
3427 2 -6 -2 -22 4890.00 4185.85 816.03 o
3427 1 2 6 22 4890.00 4185.85 816.03 o
3428 3 2 6 22 4869.74 5475.63 821.89 o
3428 2 6 2 -22 4869.74 5475.63 821.89 o
3428 1 -2 -6 22 4869.74 5475.63 821.89 o
3429 3 -3 -6 22 681.46 -1091.96 798.89 <
3429 1 3 6 22 681.46 -1091.96 798.89 <
3430 3 3 6 22 685.34 87.04 783.42 <
3430 1 -3 -6 22 685.34 87.04 783.42 <
3431 3 -4 -6 22 517.04 514.33 862.49 <
3431 2 -6 -4 -22 517.04 514.33 862.49 <
3431 1 4 6 22 517.04 514.33 862.49 <
3432 3 4 6 22 510.93 625.11 909.95 <
3432 2 6 4 -22 510.93 625.11 909.95 <
3432 1 -4 -6 22 510.93 625.11 909.95 <
3433 3 -5 -6 22 86.70 1938.62 869.65 o
3433 1 5 6 22 86.70 1938.62 869.65 o
3434 3 5 6 22 84.89 -957.44 862.29 <
3434 1 -5 -6 22 84.89 -957.44 862.29 <
3435 3 -6 -6 22 1528.86 704.23 854.83 <
3435 2 -6 -6 -22 1528.86 704.23 854.83 <
3435 1 6 6 22 1528.86 704.23 854.83 <
3436 3 6 6 22 1528.02 3006.85 821.72 o
3436 2 6 6 -22 1528.02 3006.85 821.72 o
3436 1 -6 -6 22 1528.02 3006.85 821.72 o
3437 3 -7 -6 22 244.61 743.80 909.88 <
3437 1 7 6 22 244.61 743.80 909.88 <
3438 3 7 6 22 245.77 -474.77 870.35 <
3438 1 -7 -6 22 245.77 -474.77 870.35 <
3439 3 4 -8 22 932.87 1701.24 782.98 o
3439 2 -8 4 -22 932.87 1701.24 782.98 o
3439 1 -4 8 22 932.87 1701.24 782.98 o
3440 3 -4 8 22 932.97 949.53 530.15 <
3440 2 8 -4 -22 932.97 949.53 530.15 <
3440 1 4 -8 22 932.97 949.53 530.15 <
3441 3 3 -8 22 62.48 2144.36 869.48 o
3441 1 -3 8 22 62.48 2144.36 869.48 o
3442 3 -3 8 22 61.42 925.79 577.38 <
3442 1 3 -8 22 61.42 925.79 577.38 <
3443 3 2 -8 22 99.81 3252.14 892.07 o
3443 2 -8 2 -22 99.81 3252.14 892.07 o
3443 1 -2 8 22 99.81 3252.14 892.07 o
3444 3 -2 8 22 102.76 989.09 585.26 <
3444 2 8 -2 -22 102.76 989.09 585.26 <
3444 1 2 -8 22 102.76 989.09 585.26 <
3445 3 1 -8 22 200.21 1384.73 885.88 <
3445 1 -1 8 22 200.21 1384.73 885.88 <
3446 3 -1 8 22 201.12 458.94 672.55 <
3446 1 1 -8 22 201.12 458.94 672.55 <
3447 3 0 -8 22 914.03 2437.13 798.21 o
3447 2 -8 0 -22 914.03 2437.13 798.21 o
3447 1 0 8 22 914.03 2437.13 798.21 o
3448 3 0 8 22 912.24 1258.13 719.91 <
3448 2 8 0 -22 912.24 1258.13 719.91 <
3448 1 0 -8 22 912.24 1258.13 719.91 <
3449 3 -1 -8 22 200.21 181.99 870.40 <
3449 1 1 8 22 200.21 181.99 870.40 <
3450 3 1 8 22 201.12 1630.03 838.23 <
3450 1 -1 -8 22 201.12 1630.03 838.23 <
3451 3 -2 -8 22 102.90 1036.57 830.62 <
3451 2 -8 -2 -22 102.90 1036.57 830.62 <
3451 1 2 8 22 102.90 1036.57 830.62 <
3452 3 2 8 22 99.67 158.26 807.10 <
3452 2 8 2 -22 99.67 158.26 807.10 <
3452 1 -2 -8 22 99.67 158.26 807.10 <
3453 3 -3 -8 22 62.48 -102.87 846.66 <
3453 1 3 8 22 62.48 -102.87 846.66 <
3454 3 3 8 22 61.42 561.81 735.82 <
3454 1 -3 -8 22 61.42 561.81 735.82 <
3455 3 -4 -8 22 934.06 561.81 783.45 <
3455 2 -8 -4 -22 934.06 561.81 783.45 <
3455 1 4 8 22 934.06 561.81 783.45 <
3456 3 4 8 22 931.77 1914.89 877.84 o
3456 2 8 4 -22 931.77 1914.89 877.84 o
3456 1 -4 -8 22 931.77 1914.89 877.84 o
3457 3 9 -1 23 74.08 1337.26 941.29 <
3457 2 -1 9 -23 74.08 1337.26 941.29 <
3457 1 -9 1 23 74.08 1337.26 941.29 <
3458 3 -9 1 23 73.21 1099.87 537.68 o
3458 2 1 -9 -23 73.21 1099.87 537.68 o
3458 1 9 -1 23 73.21 1099.87 537.68 o
3459 3 8 -1 23 19.33 -348.16 775.42 <
3459 1 -8 1 23 19.33 -348.16 775.42 <
3460 3 -8 1 23 19.14 -126.60 506.41 <
3460 1 8 -1 23 19.14 -126.60 506.41 <
3461 3 7 -1 23 375.50 7.91 775.47 <
3461 2 -1 7 -23 375.50 7.91 775.47 <
3461 1 -7 1 23 375.50 7.91 775.47 <
3462 3 -7 1 23 369.99 79.13 514.36 <
3462 2 1 -7 -23 369.99 79.13 514.36 <
3462 1 7 -1 23 369.99 79.13 514.36 <
3463 3 6 -1 23 134.51 648.85 807.02 <
3463 1 -6 1 23 134.51 648.85 807.02 <
3464 3 -6 1 23 134.49 609.28 498.39 <
3464 1 6 -1 23 134.49 609.28 498.39 <
3465 3 5 -1 23 2198.43 2247.22 688.37 o
3465 2 -1 5 -23 2198.43 2247.22 688.37 o
3465 1 -5 1 23 2198.43 2247.22 688.37 o
3466 3 -5 1 23 2172.06 1479.69 530.75 o
3466 2 1 -5 -23 2172.06 1479.69 530.75 o
3466 1 5 -1 23 2172.06 1479.69 530.75 o
3467 3 4 -1 23 487.37 909.97 553.74 <
3467 1 -4 1 23 487.37 909.97 553.74 <
3468 3 -4 1 23 486.83 1091.96 656.54 <
3468 1 4 -1 23 486.83 1091.96 656.54 <
3469 3 3 -1 23 18031.50 18413.00 661.87 o
3469 2 -1 3 -23 18031.50 18413.00 661.87 o
3469 1 -3 1 23 18031.50 18413.00 661.87 o
3470 3 -3 1 23 17926.20 17732.50 713.44 o
3470 2 1 -3 -23 17926.20 17732.50 713.44 o
3470 1 3 -1 23 17926.20 17732.50 713.44 o
3471 3 2 -1 23 284.71 -7.91 664.68 <
3471 1 -2 1 23 284.71 -7.91 664.68 <
3472 3 -2 1 23 281.75 633.02 719.99 <
3472 1 2 -1 23 281.75 633.02 719.99 <
3473 3 1 -1 23 54282.10 55864.10 867.64 o
3473 2 -1 1 -23 54282.10 55864.10 867.64 o
3473 1 -1 1 23 54282.10 55864.10 867.64 o
3474 3 -1 1 23 54222.90 53411.10 938.26 o
3474 2 1 -1 -23 54222.90 53411.10 938.26 o
3474 1 1 -1 23 54222.90 53411.10 938.26 o
3475 3 -1 -1 23 54181.50 52398.30 975.71 o
3475 2 -1 -1 -23 54181.50 52398.30 975.71 o
3475 1 1 1 23 54181.50 52398.30 975.71 o
3476 3 1 1 23 54323.60 55452.60 948.02 o
3476 2 1 1 -23 54323.60 55452.60 948.02 o
3476 1 -1 -1 23 54323.60 55452.60 948.02 o
3477 3 -2 -1 23 284.70 577.63 688.35 <
3477 1 2 1 23 284.70 577.63 688.35 <
3478 3 2 1 23 281.75 1273.95 624.71 o
3478 1 -2 -1 23 281.75 1273.95 624.71 o
3479 3 -3 -1 23 17922.80 18563.30 795.26 o
3479 2 -1 -3 -23 17922.80 18563.30 795.26 o
3479 1 3 1 23 17922.80 18563.30 795.26 o
3480 3 3 1 23 18035.00 18484.20 709.06 o
3480 2 1 3 -23 18035.00 18484.20 709.06 o
3480 1 -3 -1 23 18035.00 18484.20 709.06 o
3481 3 -4 -1 23 487.38 356.07 656.78 <
3481 1 4 1 23 487.38 356.07 656.78 <
3482 3 4 1 23 486.83 229.47 593.49 <
3482 1 -4 -1 23 486.83 229.47 593.49 <
3483 3 -5 -1 23 2176.61 2073.14 696.41 o
3483 2 -1 -5 -23 2176.61 2073.14 696.41 o
3483 1 5 1 23 2176.61 2073.14 696.41 o
3484 3 5 1 23 2193.87 1558.81 617.68 o
3484 2 1 5 -23 2193.87 1558.81 617.68 o
3484 1 -5 -1 23 2193.87 1558.81 617.68 o
3485 3 -6 -1 23 134.51 617.20 719.98 <
3485 1 6 1 23 134.51 617.20 719.98 <
3486 3 6 1 23 134.49 553.89 632.95 <
3486 1 -6 -1 23 134.49 553.89 632.95 <
3487 3 -7 -1 23 372.17 -300.68 712.13 <
3487 2 -1 -7 -23 372.17 -300.68 712.13 <
3487 1 7 1 23 372.17 -300.68 712.13 <
3488 3 -8 -1 23 19.33 727.97 458.74 <
3488 1 8 1 23 19.33 727.97 458.74 <
3489 3 -9 -1 23 73.65 791.28 482.46 <
3489 2 -1 -9 -23 73.65 791.28 482.46 <
3489 1 9 1 23 73.65 791.28 482.46 <
3490 3 8 -3 23 49.50 1527.16 893.68 <
3490 1 -8 3 23 49.50 1527.16 893.68 <
3491 3 -8 3 23 49.46 1084.05 521.85 o
3491 1 8 -3 23 49.46 1084.05 521.85 o
3492 3 7 -3 23 320.30 1289.78 703.88 <
3492 2 -3 7 -23 320.30 1289.78 703.88 <
3492 1 -7 3 23 320.30 1289.78 703.88 <
3493 3 -7 3 23 316.17 585.54 490.52 <
3493 2 3 -7 -23 316.17 585.54 490.52 <
3493 1 7 -3 23 316.17 585.54 490.52 <
3494 3 6 -3 23 151.79 -324.42 720.03 <
3494 1 -6 3 23 151.79 -324.42 720.03 <
3495 3 -6 3 23 151.86 743.80 482.50 <
3495 1 6 -3 23 151.86 743.80 482.50 <
3496 3 5 -3 23 1880.68 1479.69 791.49 <
3496 2 -3 5 -23 1880.68 1479.69 791.49 <
3496 1 -5 3 23 1880.68 1479.69 791.49 <
3497 3 -5 3 23 1863.99 2112.71 506.15 o
3497 2 3 -5 -23 1863.99 2112.71 506.15 o
3497 1 5 -3 23 1863.99 2112.71 506.15 o
3498 3 4 -3 23 236.75 553.89 751.66 <
3498 1 -4 3 23 236.75 553.89 751.66 <
3499 3 -4 3 23 237.23 482.68 443.05 <
3499 1 4 -3 23 237.23 482.68 443.05 <
3500 3 3 -3 23 6699.84 5902.92 832.42 o
3500 2 -3 3 -23 6699.84 5902.92 832.42 o
3500 1 -3 3 23 6699.84 5902.92 832.42 o
3501 3 -3 3 23 6687.24 6322.29 507.65 o
3501 2 3 -3 -23 6687.24 6322.29 507.65 o
3501 1 3 -3 23 6687.24 6322.29 507.65 o
3502 3 2 -3 23 140.76 -94.95 846.66 <
3502 1 -2 3 23 140.76 -94.95 846.66 <
3503 3 -2 3 23 136.85 -15.83 569.72 <
3503 1 2 -3 23 136.85 -15.83 569.72 <
3504 3 1 -3 23 18118.50 18001.50 934.31 o
3504 2 -3 1 -23 18118.50 18001.50 934.31 o
3504 1 -1 3 23 18118.50 18001.50 934.31 o
3505 3 -1 3 23 18154.80 19133.00 649.25 o
3505 2 3 -1 -23 18154.80 19133.00 649.25 o
3505 1 1 -3 23 18154.80 19133.00 649.25 o
3506 3 -1 -3 23 18110.00 21404.00 873.97 o
3506 2 -3 -1 -23 18110.00 21404.00 873.97 o
3506 1 1 3 23 18110.00 21404.00 873.97 o
3507 3 1 3 23 18163.20 19829.40 892.51 o
3507 2 3 1 -23 18163.20 19829.40 892.51 o
3507 1 -1 -3 23 18163.20 19829.40 892.51 o
3508 3 -2 -3 23 140.76 427.29 799.16 <
3508 1 2 3 23 140.76 427.29 799.16 <
3509 3 2 3 23 136.85 -118.69 759.62 <
3509 1 -2 -3 23 136.85 -118.69 759.62 <
3510 3 -3 -3 23 6678.46 7722.85 875.97 o
3510 2 -3 -3 -23 6678.46 7722.85 875.97 o
3510 1 3 3 23 6678.46 7722.85 875.97 o
3511 3 3 3 23 6708.63 8007.71 851.50 o
3511 2 3 3 -23 6708.63 8007.71 851.50 o
3511 1 -3 -3 23 6708.63 8007.71 851.50 o
3512 3 -4 -3 23 236.75 530.16 870.36 <
3512 1 4 3 23 236.75 530.16 870.36 <
3513 3 4 3 23 237.22 609.28 870.35 <
3513 1 -4 -3 23 237.22 609.28 870.35 <
3514 3 -5 -3 23 1867.21 1574.64 886.38 <
3514 2 -3 -5 -23 1867.21 1574.64 886.38 <
3514 1 5 3 23 1867.21 1574.64 886.38 <
3515 3 5 3 23 1877.46 1535.07 815.20 <
3515 2 3 5 -23 1877.46 1535.07 815.20 <
3515 1 -5 -3 23 1877.46 1535.07 815.20 <
3516 3 -6 -3 23 151.79 -102.87 656.76 <
3516 1 6 3 23 151.79 -102.87 656.76 <
3517 3 6 3 23 151.86 585.54 799.12 <
3517 1 -6 -3 23 151.86 585.54 799.12 <
3518 3 -7 -3 23 318.67 -71.21 648.85 <
3518 2 -3 -7 -23 318.67 -71.21 648.85 <
3518 1 7 3 23 318.67 -71.21 648.85 <
3519 3 7 3 23 317.80 1408.47 862.14 <
3519 2 3 7 -23 317.80 1408.47 862.14 <
3519 1 -7 -3 23 317.80 1408.47 862.14 <
3520 3 -8 -3 23 49.50 308.60 672.56 <
3520 1 8 3 23 49.50 308.60 672.56 <
3521 3 8 3 23 49.46 -688.41 886.13 <
3521 1 -8 -3 23 49.46 -688.41 886.13 <
3522 3 7 -5 23 337.40 902.05 949.42 <
3522 2 -5 7 -23 337.40 902.05 949.42 <
3522 1 -7 5 23 337.40 902.05 949.42 <
3523 3 -7 5 23 334.95 1115.70 513.98 o
3523 2 5 -7 -23 334.95 1115.70 513.98 o
3523 1 7 -5 23 334.95 1115.70 513.98 o
3524 3 6 -5 23 136.01 1614.20 822.39 <
3524 1 -6 5 23 136.01 1614.20 822.39 <
3525 3 -6 5 23 137.14 474.77 498.44 <
3525 1 6 -5 23 137.14 474.77 498.44 <
3526 3 5 -5 23 609.27 680.50 854.56 <
3526 2 -5 5 -23 609.27 680.50 854.56 <
3526 1 -5 5 23 609.27 680.50 854.56 <
3527 3 -5 5 23 609.44 1281.87 506.04 o
3527 2 5 -5 -23 609.44 1281.87 506.04 o
3527 1 5 -5 23 609.44 1281.87 506.04 o
3528 3 4 -5 23 164.60 348.16 783.34 <
3528 1 -4 5 23 164.60 348.16 783.34 <
3529 3 -4 5 23 164.45 15.83 498.51 <
3529 1 4 -5 23 164.45 15.83 498.51 <
3530 3 3 -5 23 1821.71 799.19 799.58 <
3530 2 -5 3 -23 1821.71 799.19 799.58 <
3530 1 -3 5 23 1821.71 799.19 799.58 <
3531 3 -3 5 23 1835.04 1851.58 522.23 o
3531 2 5 -3 -23 1835.04 1851.58 522.23 o
3531 1 3 -5 23 1835.04 1851.58 522.23 o
3532 3 2 -5 23 63.40 -79.13 815.01 <
3532 1 -2 5 23 63.40 -79.13 815.01 <
3533 3 -2 5 23 61.73 134.52 514.33 <
3533 1 2 -5 23 61.73 134.52 514.33 <
3534 3 1 -5 23 1871.18 2255.14 846.41 o
3534 2 -5 1 -23 1871.18 2255.14 846.41 o
3534 1 -1 5 23 1871.18 2255.14 846.41 o
3535 3 -1 5 23 1891.20 2104.79 577.43 o
3535 2 5 -1 -23 1891.20 2104.79 577.43 o
3535 1 1 -5 23 1891.20 2104.79 577.43 o
3536 3 -1 -5 23 1882.20 2389.65 901.72 o
3536 2 -5 -1 -23 1882.20 2389.65 901.72 o
3536 1 1 5 23 1882.20 2389.65 901.72 o
3537 3 1 5 23 1880.19 1756.63 910.03 <
3537 2 5 1 -23 1880.19 1756.63 910.03 <
3537 1 -1 -5 23 1880.19 1756.63 910.03 <
3538 3 -2 -5 23 63.40 -545.98 878.25 <
3538 1 2 5 23 63.40 -545.98 878.25 <
3539 3 2 5 23 61.73 379.81 870.38 <
3539 1 -2 -5 23 61.73 379.81 870.38 <
3540 3 -3 -5 23 1829.48 1432.21 799.40 <
3540 2 -5 -3 -23 1829.48 1432.21 799.40 <
3540 1 3 5 23 1829.48 1432.21 799.40 <
3541 3 3 5 23 1827.26 1171.09 807.40 <
3541 2 5 3 -23 1827.26 1171.09 807.40 <
3541 1 -3 -5 23 1827.26 1171.09 807.40 <
3542 3 -4 -5 23 164.60 917.88 775.28 <
3542 1 4 5 23 164.60 917.88 775.28 <
3543 3 4 5 23 164.45 767.54 791.16 <
3543 1 -4 -5 23 164.45 767.54 791.16 <
3544 3 -5 -5 23 609.56 886.23 838.68 <
3544 2 -5 -5 -23 609.56 886.23 838.68 <
3544 1 5 5 23 609.56 886.23 838.68 <
3545 3 5 5 23 609.14 -7.91 807.14 <
3545 2 5 5 -23 609.14 -7.91 807.14 <
3545 1 -5 -5 23 609.14 -7.91 807.14 <
3546 3 -6 -5 23 136.01 205.73 854.57 <
3546 1 6 5 23 136.01 205.73 854.57 <
3547 3 6 5 23 137.14 767.54 854.47 <
3547 1 -6 -5 23 137.14 767.54 854.47 <
3548 3 -7 -5 23 334.96 704.23 901.99 <
3548 2 -5 -7 -23 334.96 704.23 901.99 <
3548 1 7 5 23 334.96 704.23 901.99 <
3549 3 7 5 23 337.39 -585.54 870.32 <
3549 2 5 7 -23 337.39 -585.54 870.32 <
3549 1 -7 -5 23 337.39 -585.54 870.32 <
3550 3 5 -7 23 339.99 -47.48 830.85 <
3550 2 -7 5 -23 339.99 -47.48 830.85 <
3550 1 -5 7 23 339.99 -47.48 830.85 <
3551 3 -5 7 23 341.01 1004.92 506.14 <
3551 2 7 -5 -23 341.01 1004.92 506.14 <
3551 1 5 -7 23 341.01 1004.92 506.14 <
3552 3 4 -7 23 74.24 1922.80 814.22 o
3552 1 -4 7 23 74.24 1922.80 814.22 o
3553 3 -4 7 23 74.57 134.52 530.15 <
3553 1 4 -7 23 74.57 134.52 530.15 <
3554 3 3 -7 23 292.46 -237.38 854.57 <
3554 2 -7 3 -23 292.46 -237.38 854.57 <
3554 1 -3 7 23 292.46 -237.38 854.57 <
3555 3 -3 7 23 299.20 656.76 490.49 <
3555 2 7 -3 -23 299.20 656.76 490.49 <
3555 1 3 -7 23 299.20 656.76 490.49 <
3556 3 2 -7 23 23.18 680.50 870.31 <
3556 1 -2 7 23 23.18 680.50 870.31 <
3557 3 -2 7 23 22.75 31.65 530.15 <
3557 1 2 -7 23 22.75 31.65 530.15 <
3558 3 1 -7 23 274.54 561.81 759.58 <
3558 2 -7 1 -23 274.54 561.81 759.58 <
3558 1 -1 7 23 274.54 561.81 759.58 <
3559 3 -1 7 23 281.19 -15.83 617.21 <
3559 2 7 -1 -23 281.19 -15.83 617.21 <
3559 1 1 -7 23 281.19 -15.83 617.21 <
3560 3 -1 -7 23 279.82 965.36 870.25 <
3560 2 -7 -1 -23 279.82 965.36 870.25 <
3560 1 1 7 23 279.82 965.36 870.25 <
3561 3 1 7 23 275.91 189.91 815.02 <
3561 2 7 1 -23 275.91 189.91 815.02 <
3561 1 -1 -7 23 275.91 189.91 815.02 <
3562 3 -2 -7 23 23.18 1060.31 878.09 <
3562 1 2 7 23 23.18 1060.31 878.09 <
3563 3 2 7 23 22.75 -2452.95 877.09 <
3563 1 -2 -7 23 22.75 -2452.95 877.09 <
3564 3 -3 -7 23 298.53 482.68 878.29 <
3564 2 -7 -3 -23 298.53 482.68 878.29 <
3564 1 3 7 23 298.53 482.68 878.29 <
3565 3 3 7 23 293.13 -1495.51 877.83 <
3565 2 7 3 -23 293.13 -1495.51 877.83 <
3565 1 -3 -7 23 293.13 -1495.51 877.83 <
3566 3 -4 -7 23 74.24 1091.96 822.68 <
3566 1 4 7 23 74.24 1091.96 822.68 <
3567 3 4 7 23 74.57 -522.24 822.86 <
3567 1 -4 -7 23 74.57 -522.24 822.86 <
3568 3 -5 -7 23 340.01 1044.48 862.31 <
3568 2 -7 -5 -23 340.01 1044.48 862.31 <
3568 1 5 7 23 340.01 1044.48 862.31 <
3569 3 5 7 23 341.00 300.68 894.15 <
3569 2 7 5 -23 341.00 300.68 894.15 <
3569 1 -5 -7 23 341.00 300.68 894.15 <
3570 3 1 -9 23 61.07 688.41 941.53 <
3570 2 -9 1 -23 61.07 688.41 941.53 <
3570 1 -1 9 23 61.07 688.41 941.53 <
3571 3 -1 9 23 62.31 379.81 680.46 <
3571 2 9 -1 -23 62.31 379.81 680.46 <
3571 1 1 -9 23 62.31 379.81 680.46 <
3572 3 -1 -9 23 62.13 -530.16 973.22 <
3572 2 -9 -1 -23 62.13 -530.16 973.22 <
3572 1 1 9 23 62.13 -530.16 973.22 <
3573 3 1 9 23 61.25 577.63 925.73 <
3573 2 9 1 -23 61.25 577.63 925.73 <
3573 1 -1 -9 23 61.25 577.63 925.73 <
3574 3 0 0 24 202.34 949.53 664.46 <
3574 2 0 0 -24 202.34 949.53 664.46 <
3574 1 0 0 24 202.34 949.53 664.46 <
3575 3 -1 0 24 5665.54 4201.67 777.81 o
3575 1 1 0 24 5665.54 4201.67 777.81 o
3576 3 1 0 24 5665.53 3750.65 699.53 o
3576 1 -1 0 24 5665.53 3750.65 699.53 o
3577 3 -2 0 24 5025.06 3655.69 698.48 o
3577 2 0 -2 -24 5025.06 3655.69 698.48 o
3577 1 2 0 24 5025.06 3655.69 698.48 o
3578 3 2 0 24 5014.43 3663.61 666.90 o
3578 2 0 2 -24 5014.43 3663.61 666.90 o
3578 1 -2 0 24 5014.43 3663.61 666.90 o
3579 3 -3 0 24 818.68 1305.60 648.62 o
3579 1 3 0 24 818.68 1305.60 648.62 o
3580 3 3 0 24 818.68 490.59 617.28 <
3580 1 -3 0 24 818.68 490.59 617.28 <
3581 3 -4 0 24 1607.32 854.58 696.64 <
3581 2 0 -4 -24 1607.32 854.58 696.64 <
3581 1 4 0 24 1607.32 854.58 696.64 <
3582 3 4 0 24 1615.03 1384.73 625.25 o
3582 2 0 4 -24 1615.03 1384.73 625.25 o
3582 1 -4 0 24 1615.03 1384.73 625.25 o
3583 3 -5 0 24 4946.83 3940.55 713.76 o
3583 1 5 0 24 4946.83 3940.55 713.76 o
3584 3 5 0 24 4946.83 3869.34 611.27 o
3584 1 -5 0 24 4946.83 3869.34 611.27 o
3585 3 -6 0 24 629.46 166.17 656.82 <
3585 2 0 -6 -24 629.46 166.17 656.82 <
3585 1 6 0 24 629.46 166.17 656.82 <
3586 3 6 0 24 643.12 427.29 894.17 <
3586 2 0 6 -24 643.12 427.29 894.17 <
3586 1 -6 0 24 643.12 427.29 894.17 <
3587 3 -7 0 24 16.74 213.64 522.23 <
3587 1 7 0 24 16.74 213.64 522.23 <
3588 3 7 0 24 16.74 1044.48 870.18 <
3588 1 -7 0 24 16.74 1044.48 870.18 <
3589 3 -8 0 24 405.66 886.23 498.32 <
3589 2 0 -8 -24 405.66 886.23 498.32 <
3589 1 8 0 24 405.66 886.23 498.32 <
3590 3 8 0 24 402.07 625.11 830.80 <
3590 2 0 8 -24 402.07 625.11 830.80 <
3590 1 -8 0 24 402.07 625.11 830.80 <
3591 3 -9 0 24 95.57 419.38 561.76 <
3591 1 9 0 24 95.57 419.38 561.76 <
3592 3 8 -2 24 191.62 87.04 775.45 <
3592 2 -2 8 -24 191.62 87.04 775.45 <
3592 1 -8 2 24 191.62 87.04 775.45 <
3593 3 -8 2 24 187.54 269.03 506.41 <
3593 2 2 -8 -24 187.54 269.03 506.41 <
3593 1 8 -2 24 187.54 269.03 506.41 <
3594 3 7 -2 24 720.38 -1234.39 957.13 <
3594 1 -7 2 24 720.38 -1234.39 957.13 <
3595 3 -7 2 24 716.45 514.33 546.04 <
3595 1 7 -2 24 716.45 514.33 546.04 <
3596 3 6 -2 24 1018.95 791.28 759.69 <
3596 2 -2 6 -24 1018.95 791.28 759.69 <
3596 1 -6 2 24 1018.95 791.28 759.69 <
3597 3 -6 2 24 1024.24 530.16 474.96 <
3597 2 2 -6 -24 1024.24 530.16 474.96 <
3597 1 6 -2 24 1024.24 530.16 474.96 <
3598 3 5 -2 24 136.71 957.44 759.43 <
3598 1 -5 2 24 136.71 957.44 759.43 <
3599 3 -5 2 24 134.66 126.60 522.24 <
3599 1 5 -2 24 134.66 126.60 522.24 <
3600 3 4 -2 24 1515.25 1487.60 862.50 <
3600 2 -2 4 -24 1515.25 1487.60 862.50 <
3600 1 -4 2 24 1515.25 1487.60 862.50 <
3601 3 -4 2 24 1498.33 1550.90 466.81 o
3601 2 2 -4 -24 1498.33 1550.90 466.81 o
3601 1 4 -2 24 1498.33 1550.90 466.81 o
3602 3 3 -2 24 5843.46 3521.18 794.63 o
3602 1 -3 2 24 5843.46 3521.18 794.63 o
3603 3 -3 2 24 5823.25 4439.06 565.02 o
3603 1 3 -2 24 5823.25 4439.06 565.02 o
3604 3 2 -2 24 1498.49 822.93 799.42 <
3604 2 -2 2 -24 1498.49 822.93 799.42 <
3604 1 -2 2 24 1498.49 822.93 799.42 <
3605 3 -2 2 24 1494.72 886.23 688.67 <
3605 2 2 -2 -24 1494.72 886.23 688.67 <
3605 1 2 -2 24 1494.72 886.23 688.67 <
3606 3 1 -2 24 320.97 -55.39 664.68 <
3606 1 -1 2 24 320.97 -55.39 664.68 <
3607 3 -1 2 24 323.91 -71.21 704.24 <
3607 1 1 -2 24 323.91 -71.21 704.24 <
3608 3 0 -2 24 4782.63 4415.32 681.15 o
3608 2 -2 0 -24 4782.63 4415.32 681.15 o
3608 1 0 2 24 4782.63 4415.32 681.15 o
3609 3 0 2 24 4778.26 3995.94 721.29 o
3609 2 2 0 -24 4778.26 3995.94 721.29 o
3609 1 0 -2 24 4778.26 3995.94 721.29 o
3610 3 -1 -2 24 320.97 822.93 719.94 <
3610 1 1 2 24 320.97 822.93 719.94 <
3611 3 1 2 24 323.91 -47.48 727.98 <
3611 1 -1 -2 24 323.91 -47.48 727.98 <
3612 3 -2 -2 24 1492.11 727.97 744.07 <
3612 2 -2 -2 -24 1492.11 727.97 744.07 <
3612 1 2 2 24 1492.11 727.97 744.07 <
3613 3 2 2 24 1501.09 1147.35 712.32 <
3613 2 2 2 -24 1501.09 1147.35 712.32 <
3613 1 -2 -2 24 1501.09 1147.35 712.32 <
3614 3 -3 -2 24 5843.47 4051.33 865.06 o
3614 1 3 2 24 5843.47 4051.33 865.06 o
3615 3 3 2 24 5823.25 3465.79 778.89 o
3615 1 -3 -2 24 5823.25 3465.79 778.89 o
3616 3 -4 -2 24 1484.01 1202.74 823.04 <
3616 2 -2 -4 -24 1484.01 1202.74 823.04 <
3616 1 4 2 24 1484.01 1202.74 823.04 <
3617 3 4 2 24 1529.56 704.23 728.27 <
3617 2 2 4 -24 1529.56 704.23 728.27 <
3617 1 -4 -2 24 1529.56 704.23 728.27 <
3618 3 -5 -2 24 136.71 545.98 735.83 <
3618 1 5 2 24 136.71 545.98 735.83 <
3619 3 5 2 24 134.66 -981.18 862.28 <
3619 1 -5 -2 24 134.66 -981.18 862.28 <
3620 3 -6 -2 24 1026.23 443.11 577.80 <
3620 2 -2 -6 -24 1026.23 443.11 577.80 <
3620 1 6 2 24 1026.23 443.11 577.80 <
3621 3 6 2 24 1016.97 522.24 854.68 <
3621 2 2 6 -24 1016.97 522.24 854.68 <
3621 1 -6 -2 24 1016.97 522.24 854.68 <
3622 3 -7 -2 24 720.38 -158.26 617.25 <
3622 1 7 2 24 720.38 -158.26 617.25 <
3623 3 7 2 24 716.45 886.23 886.19 <
3623 1 -7 -2 24 716.45 886.23 886.19 <
3624 3 -8 -2 24 187.02 490.59 632.97 <
3624 2 -2 -8 -24 187.02 490.59 632.97 <
3624 1 8 2 24 187.02 490.59 632.97 <
3625 3 8 -4 24 288.97 498.50 862.46 <
3625 2 -4 8 -24 288.97 498.50 862.46 <
3625 1 -8 4 24 288.97 498.50 862.46 <
3626 3 -8 4 24 291.02 1368.91 529.61 o
3626 2 4 -8 -24 291.02 1368.91 529.61 o
3626 1 8 -4 24 291.02 1368.91 529.61 o
3627 3 7 -4 24 38.93 427.29 775.41 <
3627 1 -7 4 24 38.93 427.29 775.41 <
3628 3 -7 4 24 40.20 949.53 490.27 <
3628 1 7 -4 24 40.20 949.53 490.27 <
3629 3 6 -4 24 412.94 79.13 759.65 <
3629 2 -4 6 -24 412.94 79.13 759.65 <
3629 1 -6 4 24 412.94 79.13 759.65 <
3630 3 -6 4 24 406.99 79.13 458.98 <
3630 2 4 -6 -24 406.99 79.13 458.98 <
3630 1 6 -4 24 406.99 79.13 458.98 <
3631 3 5 -4 24 1061.08 1186.91 720.01 <
3631 1 -5 4 24 1061.08 1186.91 720.01 <
3632 3 -5 4 24 1053.77 775.45 506.54 <
3632 1 5 -4 24 1053.77 775.45 506.54 <
3633 3 4 -4 24 1418.73 1028.66 783.52 <
3633 2 -4 4 -24 1418.73 1028.66 783.52 <
3633 1 -4 4 24 1418.73 1028.66 783.52 <
3634 3 -4 4 24 1426.29 933.71 459.25 o
3634 2 4 -4 -24 1426.29 933.71 459.25 o
3634 1 4 -4 24 1426.29 933.71 459.25 o
3635 3 3 -4 24 163.11 -197.82 807.09 <
3635 1 -3 4 24 163.11 -197.82 807.09 <
3636 3 -3 4 24 166.57 427.29 498.46 <
3636 1 3 -4 24 166.57 427.29 498.46 <
3637 3 2 -4 24 1364.65 830.84 918.04 <
3637 2 -4 2 -24 1364.65 830.84 918.04 <
3637 1 -2 4 24 1364.65 830.84 918.04 <
3638 3 -2 4 24 1342.83 1550.90 522.08 o
3638 2 4 -2 -24 1342.83 1550.90 522.08 o
3638 1 2 -4 24 1342.83 1550.90 522.08 o
3639 3 1 -4 24 1401.08 -166.17 886.40 <
3639 1 -1 4 24 1401.08 -166.17 886.40 <
3640 3 -1 4 24 1395.89 704.23 546.30 <
3640 1 1 -4 24 1395.89 704.23 546.30 <
3641 3 0 -4 24 1628.93 997.01 846.91 <
3641 2 -4 0 -24 1628.93 997.01 846.91 <
3641 1 0 4 24 1628.93 997.01 846.91 <
3642 3 0 4 24 1632.12 1329.34 672.76 <
3642 2 4 0 -24 1632.12 1329.34 672.76 <
3642 1 0 -4 24 1632.12 1329.34 672.76 <
3643 3 -1 -4 24 1401.08 791.28 862.68 <
3643 1 1 4 24 1401.08 791.28 862.68 <
3644 3 1 4 24 1395.89 1313.52 878.35 <
3644 1 -1 -4 24 1395.89 1313.52 878.35 <
3645 3 -2 -4 24 1329.95 1574.64 854.46 <
3645 2 -4 -2 -24 1329.95 1574.64 854.46 <
3645 1 2 4 24 1329.95 1574.64 854.46 <
3646 3 2 4 24 1377.51 553.89 838.97 <
3646 2 4 2 -24 1377.51 553.89 838.97 <
3646 1 -2 -4 24 1377.51 553.89 838.97 <
3647 3 -3 -4 24 163.11 783.36 862.38 <
3647 1 3 4 24 163.11 783.36 862.38 <
3648 3 3 4 24 166.57 -767.54 854.45 <
3648 1 -3 -4 24 166.57 -767.54 854.45 <
3649 3 -4 -4 24 1431.58 783.36 807.32 <
3649 2 -4 -4 -24 1431.58 783.36 807.32 <
3649 1 4 4 24 1431.58 783.36 807.32 <
3650 3 4 4 24 1413.44 363.99 799.44 <
3650 2 4 4 -24 1413.44 363.99 799.44 <
3650 1 -4 -4 24 1413.44 363.99 799.44 <
3651 3 -5 -4 24 1061.08 585.54 799.31 <
3651 1 5 4 24 1061.08 585.54 799.31 <
3652 3 5 4 24 1053.77 1258.13 822.85 <
3652 1 -5 -4 24 1053.77 1258.13 822.85 <
3653 3 -6 -4 24 404.79 1487.60 846.28 <
3653 2 -4 -6 -24 404.79 1487.60 846.28 <
3653 1 6 4 24 404.79 1487.60 846.28 <
3654 3 6 4 24 415.14 1060.31 822.75 <
3654 2 4 6 -24 415.14 1060.31 822.75 <
3654 1 -6 -4 24 415.14 1060.31 822.75 <
3655 3 -7 -4 24 38.93 395.64 822.89 <
3655 1 7 4 24 38.93 395.64 822.89 <
3656 3 7 4 24 40.20 -997.01 862.28 <
3656 1 -7 -4 24 40.20 -997.01 862.28 <
3657 3 -8 -4 24 291.52 609.28 791.22 <
3657 2 -4 -8 -24 291.52 609.28 791.22 <
3657 1 8 4 24 291.52 609.28 791.22 <
3658 3 8 4 24 288.47 308.60 973.27 <
3658 2 4 8 -24 288.47 308.60 973.27 <
3658 1 -8 -4 24 288.47 308.60 973.27 <
3659 3 6 -6 24 424.67 1368.91 830.52 <
3659 2 -6 6 -24 424.67 1368.91 830.52 <
3659 1 -6 6 24 424.67 1368.91 830.52 <
3660 3 -6 6 24 426.29 356.07 498.52 <
3660 2 6 -6 -24 426.29 356.07 498.52 <
3660 1 6 -6 24 426.29 356.07 498.52 <
3661 3 5 -6 24 85.50 1606.29 854.06 <
3661 1 -5 6 24 85.50 1606.29 854.06 <
3662 3 -5 6 24 87.74 -229.47 538.05 <
3662 1 5 -6 24 87.74 -229.47 538.05 <
3663 3 4 -6 24 363.82 -601.37 925.72 <
3663 2 -6 4 -24 363.82 -601.37 925.72 <
3663 1 -4 6 24 363.82 -601.37 925.72 <
3664 3 -4 6 24 361.84 134.52 522.27 <
3664 2 6 -4 -24 361.84 134.52 522.27 <
3664 1 4 -6 24 361.84 134.52 522.27 <
3665 3 3 -6 24 526.32 142.43 783.40 <
3665 1 -3 6 24 526.32 142.43 783.40 <
3666 3 -3 6 24 522.70 609.28 490.56 <
3666 1 3 -6 24 522.70 609.28 490.56 <
3667 3 2 -6 24 1014.57 221.56 823.05 <
3667 2 -6 2 -24 1014.57 221.56 823.05 <
3667 1 -2 6 24 1014.57 221.56 823.05 <
3668 3 -2 6 24 1016.37 973.27 553.91 <
3668 2 6 -2 -24 1016.37 973.27 553.91 <
3668 1 2 -6 24 1016.37 973.27 553.91 <
3669 3 1 -6 24 270.41 553.89 854.54 <
3669 1 -1 6 24 270.41 553.89 854.54 <
3670 3 -1 6 24 272.11 221.56 593.46 <
3670 1 1 -6 24 272.11 221.56 593.46 <
3671 3 0 -6 24 464.92 1946.54 838.07 o
3671 2 -6 0 -24 464.92 1946.54 838.07 o
3671 1 0 6 24 464.92 1946.54 838.07 o
3672 3 0 6 24 470.55 411.46 862.50 <
3672 2 6 0 -24 470.55 411.46 862.50 <
3672 1 0 -6 24 470.55 411.46 862.50 <
3673 3 -1 -6 24 270.41 1044.48 791.07 <
3673 1 1 6 24 270.41 1044.48 791.07 <
3674 3 1 6 24 272.11 1321.43 806.76 <
3674 1 -1 -6 24 272.11 1321.43 806.76 <
3675 3 -2 -6 24 1019.37 2587.47 798.11 o
3675 2 -6 -2 -24 1019.37 2587.47 798.11 o
3675 1 2 6 24 1019.37 2587.47 798.11 o
3676 3 2 6 24 1011.57 688.41 815.10 <
3676 2 6 2 -24 1011.57 688.41 815.10 <
3676 1 -2 -6 24 1011.57 688.41 815.10 <
3677 3 -3 -6 24 526.32 1163.17 806.90 <
3677 1 3 6 24 526.32 1163.17 806.90 <
3678 3 3 6 24 522.70 807.10 791.21 <
3678 1 -3 -6 24 522.70 807.10 791.21 <
3679 3 -4 -6 24 358.48 925.79 886.10 <
3679 2 -6 -4 -24 358.48 925.79 886.10 <
3679 1 4 6 24 358.48 925.79 886.10 <
3680 3 4 6 24 367.18 -411.46 854.54 <
3680 2 6 4 -24 367.18 -411.46 854.54 <
3680 1 -4 -6 24 367.18 -411.46 854.54 <
3681 3 -5 -6 24 85.50 1804.11 822.24 o
3681 1 5 6 24 85.50 1804.11 822.24 o
3682 3 5 6 24 87.75 1677.50 838.17 <
3682 1 -5 -6 24 87.75 1677.50 838.17 <
3683 3 -6 -6 24 427.43 1590.46 869.97 <
3683 2 -6 -6 -24 427.43 1590.46 869.97 <
3683 1 6 6 24 427.43 1590.46 869.97 <
3684 3 6 6 24 423.53 1060.31 878.15 <
3684 2 6 6 -24 423.53 1060.31 878.15 <
3684 1 -6 -6 24 423.53 1060.31 878.15 <
3685 3 4 -8 24 304.75 1305.60 973.00 <
3685 2 -8 4 -24 304.75 1305.60 973.00 <
3685 1 -4 8 24 304.75 1305.60 973.00 <
3686 3 -4 8 24 304.91 878.32 577.45 <
3686 2 8 -4 -24 304.91 878.32 577.45 <
3686 1 4 -8 24 304.91 878.32 577.45 <
3687 3 3 -8 24 42.44 276.95 870.39 <
3687 1 -3 8 24 42.44 276.95 870.39 <
3688 3 -3 8 24 43.40 -63.30 545.98 <
3688 1 3 -8 24 43.40 -63.30 545.98 <
3689 3 2 -8 24 133.12 -1637.94 790.65 <
3689 2 -8 2 -24 133.12 -1637.94 790.65 <
3689 1 -2 8 24 133.12 -1637.94 790.65 <
3690 3 -2 8 24 133.74 300.68 609.26 <
3690 2 8 -2 -24 133.74 300.68 609.26 <
3690 1 2 -8 24 133.74 300.68 609.26 <
3691 3 1 -8 24 134.63 150.34 878.32 <
3691 1 -1 8 24 134.63 150.34 878.32 <
3692 3 -1 8 24 134.17 1076.13 688.13 <
3692 1 1 -8 24 134.17 1076.13 688.13 <
3693 3 0 -8 24 416.10 166.17 783.38 <
3693 2 -8 0 -24 416.10 166.17 783.38 <
3693 1 0 8 24 416.10 166.17 783.38 <
3694 3 0 8 24 414.63 466.85 886.22 <
3694 2 8 0 -24 414.63 466.85 886.22 <
3694 1 0 -8 24 414.63 466.85 886.22 <
3695 3 -1 -8 24 134.63 1550.90 869.93 <
3695 1 1 8 24 134.63 1550.90 869.93 <
3696 3 1 8 24 134.17 1677.50 735.23 o
3696 1 -1 -8 24 134.17 1677.50 735.23 o
3697 3 -2 -8 24 131.84 640.93 838.68 <
3697 2 -8 -2 -24 131.84 640.93 838.68 <
3697 1 2 8 24 131.84 640.93 838.68 <
3698 3 2 8 24 135.02 -63.30 830.84 <
3698 2 8 2 -24 135.02 -63.30 830.84 <
3698 1 -2 -8 24 135.02 -63.30 830.84 <
3699 3 -3 -8 24 42.44 1171.09 885.96 <
3699 1 3 8 24 42.44 1171.09 885.96 <
3700 3 3 8 24 43.40 1076.13 870.17 <
3700 1 -3 -8 24 43.40 1076.13 870.17 <
3701 3 -4 -8 24 305.96 1653.77 893.66 <
3701 2 -8 -4 -24 305.96 1653.77 893.66 <
3701 1 4 8 24 305.96 1653.77 893.66 <
3702 3 4 8 24 303.70 2160.18 885.37 o
3702 2 8 4 -24 303.70 2160.18 885.37 o
3702 1 -4 -8 24 303.70 2160.18 885.37 o
3703 3 8 -1 25 54.96 63.30 791.28 <
3703 1 -8 1 25 54.96 63.30 791.28 <
3704 3 -8 1 25 53.98 727.97 498.32 <
3704 1 8 -1 25 53.98 727.97 498.32 <
3705 3 7 -1 25 419.47 -134.52 862.50 <
3705 2 -1 7 -25 419.47 -134.52 862.50 <
3705 1 -7 1 25 419.47 -134.52 862.50 <
3706 3 -7 1 25 415.70 -15.83 522.27 <
3706 2 1 -7 -25 415.70 -15.83 522.27 <
3706 1 7 -1 25 415.70 -15.83 522.27 <
3707 3 6 -1 25 232.46 973.27 886.07 <
3707 1 -6 1 25 232.46 973.27 886.07 <
3708 3 -6 1 25 232.60 886.23 490.35 <
3708 1 6 -1 25 232.60 886.23 490.35 <
3709 3 5 -1 25 1716.89 854.58 688.79 <
3709 2 -1 5 -25 1716.89 854.58 688.79 <
3709 1 -5 1 25 1716.89 854.58 688.79 <
3710 3 -5 1 25 1692.66 1107.79 506.82 o
3710 2 1 -5 -25 1692.66 1107.79 506.82 o
3710 1 5 -1 25 1692.66 1107.79 506.82 o
3711 3 4 -1 25 768.79 838.75 633.00 <
3711 1 -4 1 25 768.79 838.75 633.00 <
3712 3 -4 1 25 769.56 981.18 593.37 <
3712 1 4 -1 25 769.56 981.18 593.37 <
3713 3 3 -1 25 8851.21 7904.84 604.81 o
3713 2 -1 3 -25 8851.21 7904.84 604.81 o
3713 1 -3 1 25 8851.21 7904.84 604.81 o
3714 3 -3 1 25 8808.75 8458.74 697.47 o
3714 2 1 -3 -25 8808.75 8458.74 697.47 o
3714 1 3 -1 25 8808.75 8458.74 697.47 o
3715 3 2 -1 25 548.16 1020.75 696.17 <
3715 1 -2 1 25 548.16 1020.75 696.17 <
3716 3 -2 1 25 551.89 601.37 672.57 <
3716 1 2 -1 25 551.89 601.37 672.57 <
3717 3 1 -1 25 24600.90 26302.00 784.44 o
3717 2 -1 1 -25 24600.90 26302.00 784.44 o
3717 1 -1 1 25 24600.90 26302.00 784.44 o
3718 3 -1 1 25 24576.20 24434.60 847.76 o
3718 2 1 -1 -25 24576.20 24434.60 847.76 o
3718 1 1 -1 25 24576.20 24434.60 847.76 o
3719 3 -1 -1 25 24558.80 25447.40 855.55 o
3719 2 -1 -1 -25 24558.80 25447.40 855.55 o
3719 1 1 1 25 24558.80 25447.40 855.55 o
3720 3 1 1 25 24618.20 25257.50 801.79 o
3720 2 1 1 -25 24618.20 25257.50 801.79 o
3720 1 -1 -1 25 24618.20 25257.50 801.79 o
3721 3 -2 -1 25 548.15 189.91 656.80 <
3721 1 2 1 25 548.15 189.91 656.80 <
3722 3 2 1 25 551.89 957.44 632.88 <
3722 1 -2 -1 25 551.89 957.44 632.88 <
3723 3 -3 -1 25 8800.46 9542.78 709.56 o
3723 2 -1 -3 -25 8800.46 9542.78 709.56 o
3723 1 3 1 25 8800.46 9542.78 709.56 o
3724 3 3 1 25 8859.56 8047.27 683.14 o
3724 2 1 3 -25 8859.56 8047.27 683.14 o
3724 1 -3 -1 25 8859.56 8047.27 683.14 o
3725 3 -4 -1 25 768.80 878.32 672.55 <
3725 1 4 1 25 768.80 878.32 672.55 <
3726 3 4 1 25 769.55 -189.91 593.51 <
3726 1 -4 -1 25 769.55 -189.91 593.51 <
3727 3 -5 -1 25 1697.89 759.63 688.80 <
3727 2 -1 -5 -25 1697.89 759.63 688.80 <
3727 1 5 1 25 1697.89 759.63 688.80 <
3728 3 5 1 25 1711.65 1978.19 624.89 o
3728 2 1 5 -25 1711.65 1978.19 624.89 o
3728 1 -5 -1 25 1711.65 1978.19 624.89 o
3729 3 -6 -1 25 232.47 593.46 720.00 <
3729 1 6 1 25 232.47 593.46 720.00 <
3730 3 6 1 25 232.60 997.01 616.95 <
3730 1 -6 -1 25 232.60 997.01 616.95 <
3731 3 -7 -1 25 415.00 712.15 727.91 <
3731 2 -1 -7 -25 415.00 712.15 727.91 <
3731 1 7 1 25 415.00 712.15 727.91 <
3732 3 7 1 25 420.17 886.23 624.96 <
3732 2 1 7 -25 420.17 886.23 624.96 <
3732 1 -7 -1 25 420.17 886.23 624.96 <
3733 3 -8 -1 25 54.96 269.03 466.83 <
3733 1 8 1 25 54.96 269.03 466.83 <
3734 3 8 -3 25 32.27 308.60 838.73 <
3734 1 -8 3 25 32.27 308.60 838.73 <
3735 3 -8 3 25 32.78 1535.07 553.14 o
3735 1 8 -3 25 32.78 1535.07 553.14 o
3736 3 7 -3 25 348.68 767.54 767.45 <
3736 2 -3 7 -25 348.68 767.54 767.45 <
3736 1 -7 3 25 348.68 767.54 767.45 <
3737 3 -7 3 25 343.43 569.72 522.18 <
3737 2 3 -7 -25 343.43 569.72 522.18 <
3737 1 7 -3 25 343.43 569.72 522.18 <
3738 3 6 -3 25 190.45 -63.30 688.41 <
3738 1 -6 3 25 190.45 -63.30 688.41 <
3739 3 -6 3 25 188.33 253.21 466.84 <
3739 1 6 -3 25 188.33 253.21 466.84 <
3740 3 5 -3 25 1504.25 759.63 910.19 <
3740 2 -3 5 -25 1504.25 759.63 910.19 <
3740 1 -5 3 25 1504.25 759.63 910.19 <
3741 3 -5 3 25 1490.91 1171.09 514.54 o
3741 2 3 -5 -25 1490.91 1171.09 514.54 o
3741 1 5 -3 25 1490.91 1171.09 514.54 o
3742 3 4 -3 25 182.11 -545.98 775.37 <
3742 1 -4 3 25 182.11 -545.98 775.37 <
3743 3 -4 3 25 183.07 -102.87 482.68 <
3743 1 4 -3 25 183.07 -102.87 482.68 <
3744 3 3 -3 25 3700.15 2650.77 808.14 o
3744 2 -3 3 -25 3700.15 2650.77 808.14 o
3744 1 -3 3 25 3700.15 2650.77 808.14 o
3745 3 -3 3 25 3692.27 3030.58 523.34 o
3745 2 3 -3 -25 3692.27 3030.58 523.34 o
3745 1 3 -3 25 3692.27 3030.58 523.34 o
3746 3 2 -3 25 259.32 -158.26 957.44 <
3746 1 -2 3 25 259.32 -158.26 957.44 <
3747 3 -2 3 25 261.41 617.20 545.89 <
3747 1 2 -3 25 261.41 617.20 545.89 <
3748 3 1 -3 25 8718.51 8324.22 895.14 o
3748 2 -3 1 -25 8718.51 8324.22 895.14 o
3748 1 -1 3 25 8718.51 8324.22 895.14 o
3749 3 -1 3 25 8719.30 8743.59 569.62 o
3749 2 3 -1 -25 8719.30 8743.59 569.62 o
3749 1 1 -3 25 8719.30 8743.59 569.62 o
3750 3 -1 -3 25 8698.38 9162.97 932.51 o
3750 2 -3 -1 -25 8698.38 9162.97 932.51 o
3750 1 1 3 25 8698.38 9162.97 932.51 o
3751 3 1 3 25 8739.51 8150.14 903.51 o
3751 2 3 1 -25 8739.51 8150.14 903.51 o
3751 1 -1 -3 25 8739.51 8150.14 903.51 o
3752 3 -2 -3 25 259.32 490.59 894.11 <
3752 1 2 3 25 259.32 490.59 894.11 <
3753 3 2 3 25 261.41 142.43 830.85 <
3753 1 -2 -3 25 261.41 142.43 830.85 <
3754 3 -3 -3 25 3686.69 4391.58 869.51 o
3754 2 -3 -3 -25 3686.69 4391.58 869.51 o
3754 1 3 3 25 3686.69 4391.58 869.51 o
3755 3 3 3 25 3705.67 2793.20 871.27 o
3755 2 3 3 -25 3705.67 2793.20 871.27 o
3755 1 -3 -3 25 3705.67 2793.20 871.27 o
3756 3 -4 -3 25 182.12 363.99 854.56 <
3756 1 4 3 25 182.12 363.99 854.56 <
3757 3 4 3 25 183.07 -522.24 862.43 <
3757 1 -4 -3 25 183.07 -522.24 862.43 <
3758 3 -5 -3 25 1489.94 1313.52 854.65 <
3758 2 -3 -5 -25 1489.94 1313.52 854.65 <
3758 1 5 3 25 1489.94 1313.52 854.65 <
3759 3 5 3 25 1505.24 1131.52 854.72 <
3759 2 3 5 -25 1505.24 1131.52 854.72 <
3759 1 -5 -3 25 1505.24 1131.52 854.72 <
3760 3 -6 -3 25 190.45 300.68 712.14 <
3760 1 6 3 25 190.45 300.68 712.14 <
3761 3 6 3 25 188.33 1202.74 767.23 <
3761 1 -6 -3 25 188.33 1202.74 767.23 <
3762 3 -7 -3 25 344.88 783.36 712.04 <
3762 2 -3 -7 -25 344.88 783.36 712.04 <
3762 1 7 3 25 344.88 783.36 712.04 <
3763 3 7 3 25 347.23 965.36 886.09 <
3763 2 3 7 -25 347.23 965.36 886.09 <
3763 1 -7 -3 25 347.23 965.36 886.09 <
3764 3 -8 -3 25 32.27 1297.69 687.98 <
3764 1 8 3 25 32.27 1297.69 687.98 <
3765 3 8 3 25 32.78 1281.87 909.65 <
3765 1 -8 -3 25 32.78 1281.87 909.65 <
3766 3 7 -5 25 462.47 1044.48 838.59 <
3766 2 -5 7 -25 462.47 1044.48 838.59 <
3766 1 -7 5 25 462.47 1044.48 838.59 <
3767 3 -7 5 25 461.39 672.58 514.26 <
3767 2 5 -7 -25 461.39 672.58 514.26 <
3767 1 7 -5 25 461.39 672.58 514.26 <
3768 3 6 -5 25 60.33 886.23 838.59 <
3768 1 -6 5 25 60.33 886.23 838.59 <
3769 3 -6 5 25 60.87 451.03 522.18 <
3769 1 6 -5 25 60.87 451.03 522.18 <
3770 3 5 -5 25 650.26 1321.43 822.69 <
3770 2 -5 5 -25 650.26 1321.43 822.69 <
3770 1 -5 5 25 650.26 1321.43 822.69 <
3771 3 -5 5 25 649.12 735.89 514.30 <
3771 2 5 -5 -25 649.12 735.89 514.30 <
3771 1 5 -5 25 649.12 735.89 514.30 <
3772 3 4 -5 25 136.06 1163.17 838.48 <
3772 1 -4 5 25 136.06 1163.17 838.48 <
3773 3 -4 5 25 135.74 561.81 498.41 <
3773 1 4 -5 25 135.74 561.81 498.41 <
3774 3 3 -5 25 1410.46 2492.52 798.42 o
3774 2 -5 3 -25 1410.46 2492.52 798.42 o
3774 1 -3 5 25 1410.46 2492.52 798.42 o
3775 3 -3 5 25 1413.96 1400.56 482.69 o
3775 2 5 -3 -25 1413.96 1400.56 482.69 o
3775 1 3 -5 25 1413.96 1400.56 482.69 o
3776 3 2 -5 25 42.56 -870.40 799.02 <
3776 1 -2 5 25 42.56 -870.40 799.02 <
3777 3 -2 5 25 43.97 15.83 538.07 <
3777 1 2 -5 25 43.97 15.83 538.07 <
3778 3 1 -5 25 1460.61 1914.89 846.41 o
3778 2 -5 1 -25 1460.61 1914.89 846.41 o
3778 1 -1 5 25 1460.61 1914.89 846.41 o
3779 3 -1 5 25 1481.16 997.01 562.07 <
3779 2 5 -1 -25 1481.16 997.01 562.07 <
3779 1 1 -5 25 1481.16 997.01 562.07 <
3780 3 -1 -5 25 1473.33 1448.03 886.24 <
3780 2 -5 -1 -25 1473.33 1448.03 886.24 <
3780 1 1 5 25 1473.33 1448.03 886.24 <
3781 3 1 5 25 1468.44 237.38 878.56 <
3781 2 5 1 -25 1468.44 237.38 878.56 <
3781 1 -1 -5 25 1468.44 237.38 878.56 <
3782 3 -2 -5 25 42.56 1012.83 814.79 <
3782 1 2 5 25 42.56 1012.83 814.79 <
3783 3 2 5 25 43.97 -134.52 807.10 <
3783 1 -2 -5 25 43.97 -134.52 807.10 <
3784 3 -3 -5 25 1408.07 1194.83 807.19 <
3784 2 -5 -3 -25 1408.07 1194.83 807.19 <
3784 1 3 5 25 1408.07 1194.83 807.19 <
3785 3 3 5 25 1416.36 2073.14 798.78 o
3785 2 5 3 -25 1416.36 2073.14 798.78 o
3785 1 -3 -5 25 1416.36 2073.14 798.78 o
3786 3 -4 -5 25 136.06 253.21 799.18 <
3786 1 4 5 25 136.06 253.21 799.18 <
3787 3 4 5 25 135.74 -197.82 799.18 <
3787 1 -4 -5 25 135.74 -197.82 799.18 <
3788 3 -5 -5 25 648.31 1147.35 854.42 <
3788 2 -5 -5 -25 648.31 1147.35 854.42 <
3788 1 5 5 25 648.31 1147.35 854.42 <
3789 3 5 5 25 651.06 1186.91 854.41 <
3789 2 5 5 -25 651.06 1186.91 854.41 <
3789 1 -5 -5 25 651.06 1186.91 854.41 <
3790 3 -6 -5 25 60.33 909.97 925.64 <
3790 1 6 5 25 60.33 909.97 925.64 <
3791 3 6 5 25 60.87 -126.60 894.14 <
3791 1 -6 -5 25 60.87 -126.60 894.14 <
3792 3 -7 -5 25 460.84 2318.44 940.72 o
3792 2 -5 -7 -25 460.84 2318.44 940.72 o
3792 1 7 5 25 460.84 2318.44 940.72 o
3793 3 7 5 25 463.02 -150.34 949.54 <
3793 2 5 7 -25 463.02 -150.34 949.54 <
3793 1 -7 -5 25 463.02 -150.34 949.54 <
3794 3 5 -7 25 468.05 443.11 870.41 <
3794 2 -7 5 -25 468.05 443.11 870.41 <
3794 1 -5 7 25 468.05 443.11 870.41 <
3795 3 -5 7 25 467.38 1321.43 561.39 o
3795 2 7 -5 -25 467.38 1321.43 561.39 o
3795 1 5 -7 25 467.38 1321.43 561.39 o
3796 3 4 -7 25 31.17 1859.50 806.34 o
3796 1 -4 7 25 31.17 1859.50 806.34 o
3797 3 -4 7 25 31.75 672.58 514.18 <
3797 1 4 -7 25 31.75 672.58 514.18 <
3798 3 3 -7 25 302.00 2809.03 845.10 o
3798 2 -7 3 -25 302.00 2809.03 845.10 o
3798 1 -3 7 25 302.00 2809.03 845.10 o
3799 3 -3 7 25 307.08 340.25 538.06 <
3799 2 7 -3 -25 307.08 340.25 538.06 <
3799 1 3 -7 25 307.08 340.25 538.06 <
3800 3 2 -7 25 33.82 -767.54 862.37 <
3800 1 -2 7 25 33.82 -767.54 862.37 <
3801 3 -2 7 25 33.41 538.07 569.63 <
3801 1 2 -7 25 33.41 538.07 569.63 <
3802 3 1 -7 25 300.18 1463.86 885.85 <
3802 2 -7 1 -25 300.18 1463.86 885.85 <
3802 1 -1 7 25 300.18 1463.86 885.85 <
3803 3 -1 7 25 300.35 593.46 640.87 <
3803 2 7 -1 -25 300.35 593.46 640.87 <
3803 1 1 -7 25 300.35 593.46 640.87 <
3804 3 -1 -7 25 298.51 1574.64 854.12 <
3804 2 -7 -1 -25 298.51 1574.64 854.12 <
3804 1 1 7 25 298.51 1574.64 854.12 <
3805 3 1 7 25 302.02 514.33 838.72 <
3805 2 7 1 -25 302.02 514.33 838.72 <
3805 1 -1 -7 25 302.02 514.33 838.72 <
3806 3 -2 -7 25 33.82 -253.21 917.87 <
3806 1 2 7 25 33.82 -253.21 917.87 <
3807 3 2 7 25 33.41 -1812.02 885.56 <
3807 1 -2 -7 25 33.41 -1812.02 885.56 <
3808 3 -3 -7 25 305.51 538.07 878.28 <
3808 2 -7 -3 -25 305.51 538.07 878.28 <
3808 1 3 7 25 305.51 538.07 878.28 <
3809 3 3 7 25 303.56 1804.11 877.72 o
3809 2 7 3 -25 303.56 1804.11 877.72 o
3809 1 -3 -7 25 303.56 1804.11 877.72 o
3810 3 -4 -7 25 31.17 474.77 838.71 <
3810 1 4 7 25 31.17 474.77 838.71 <
3811 3 4 7 25 31.75 -482.68 846.61 <
3811 1 -4 -7 25 31.75 -482.68 846.61 <
3812 3 -5 -7 25 466.71 2452.95 940.61 o
3812 2 -7 -5 -25 466.71 2452.95 940.61 o
3812 1 5 7 25 466.71 2452.95 940.61 o
3813 3 5 7 25 468.72 997.01 941.49 <
3813 2 7 5 -25 468.72 997.01 941.49 <
3813 1 -5 -7 25 468.72 997.01 941.49 <
3814 3 0 0 26 50244.40 42689.30 1019.44 o
3814 2 0 0 -26 50244.40 42689.30 1019.44 o
3814 1 0 0 26 50244.40 42689.30 1019.44 o
3815 3 -1 0 26 1930.13 1717.07 680.65 o
3815 1 1 0 26 1930.13 1717.07 680.65 o
3816 3 1 0 26 1930.13 1994.01 609.23 o
3816 1 -1 0 26 1930.13 1994.01 609.23 o
3817 3 -2 0 26 7439.99 6377.68 738.47 o
3817 2 0 -2 -26 7439.99 6377.68 738.47 o
3817 1 2 0 26 7439.99 6377.68 738.47 o
3818 3 2 0 26 7397.31 7018.61 705.26 o
3818 2 0 2 -26 7397.31 7018.61 705.26 o
3818 1 -2 0 26 7397.31 7018.61 705.26 o
3819 3 -3 0 26 6863.31 5008.77 676.71 o
3819 1 3 0 26 6863.31 5008.77 676.71 o
3820 3 3 0 26 6863.33 5119.55 621.47 o
3820 1 -3 0 26 6863.33 5119.55 621.47 o
3821 3 -4 0 26 9744.95 7509.20 640.75 o
3821 2 0 -4 -26 9744.95 7509.20 640.75 o
3821 1 4 0 26 9744.95 7509.20 640.75 o
3822 3 4 0 26 9668.34 7896.93 647.16 o
3822 2 0 4 -26 9668.34 7896.93 647.16 o
3822 1 -4 0 26 9668.34 7896.93 647.16 o
3823 3 -5 0 26 148.66 316.51 617.18 <
3823 1 5 0 26 148.66 316.51 617.18 <
3824 3 5 0 26 148.65 1091.96 624.79 <
3824 1 -5 0 26 148.65 1091.96 624.79 <
3825 3 -6 0 26 337.58 846.66 712.02 <
3825 2 0 -6 -26 337.58 846.66 712.02 <
3825 1 6 0 26 337.58 846.66 712.02 <
3826 3 6 0 26 342.52 -965.36 909.76 <
3826 2 0 6 -26 342.52 -965.36 909.76 <
3826 1 -6 0 26 342.52 -965.36 909.76 <
3827 3 -7 0 26 683.59 1091.96 553.71 <
3827 1 7 0 26 683.59 1091.96 553.71 <
3828 3 7 0 26 683.59 -71.21 775.50 <
3828 1 -7 0 26 683.59 -71.21 775.50 <
3829 3 -8 0 26 670.50 965.36 537.94 <
3829 2 0 -8 -26 670.50 965.36 537.94 <
3829 1 8 0 26 670.50 965.36 537.94 <
3830 3 8 0 26 664.54 815.01 862.46 <
3830 2 0 8 -26 664.54 815.01 862.46 <
3830 1 -8 0 26 664.54 815.01 862.46 <
3831 3 8 -2 26 103.15 830.84 878.19 <
3831 2 -2 8 -26 103.15 830.84 878.19 <
3831 1 -8 2 26 103.15 830.84 878.19 <
3832 3 -8 2 26 100.05 799.19 522.04 <
3832 2 2 -8 -26 100.05 799.19 522.04 <
3832 1 8 -2 26 100.05 799.19 522.04 <
3833 3 7 -2 26 221.81 -458.94 846.61 <
3833 1 -7 2 26 221.81 -458.94 846.61 <
3834 3 -7 2 26 222.26 538.07 538.00 <
3834 1 7 -2 26 222.26 538.07 538.00 <
3835 3 6 -2 26 2469.98 2270.96 791.43 o
3835 2 -2 6 -26 2469.98 2270.96 791.43 o
3835 1 -6 2 26 2469.98 2270.96 791.43 o
3836 3 -6 2 26 2483.33 1076.13 483.88 o
3836 2 2 -6 -26 2483.33 1076.13 483.88 o
3836 1 6 -2 26 2483.33 1076.13 483.88 o
3837 3 5 -2 26 1981.61 1171.09 783.76 <
3837 1 -5 2 26 1981.61 1171.09 783.76 <
3838 3 -5 2 26 1981.34 1115.70 538.67 o
3838 1 5 -2 26 1981.34 1115.70 538.67 o
3839 3 4 -2 26 883.84 245.29 720.17 <
3839 2 -2 4 -26 883.84 245.29 720.17 <
3839 1 -4 2 26 883.84 245.29 720.17 <
3840 3 -4 2 26 882.51 577.63 482.79 <
3840 2 2 -4 -26 882.51 577.63 482.79 <
3840 1 4 -2 26 882.51 577.63 482.79 <
3841 3 3 -2 26 648.46 846.66 846.62 <
3841 1 -3 2 26 648.46 846.66 846.62 <
3842 3 -3 2 26 648.44 640.93 474.77 <
3842 1 3 -2 26 648.44 640.93 474.77 <
3843 3 2 -2 26 20850.90 18460.50 915.56 o
3843 2 -2 2 -26 20850.90 18460.50 915.56 o
3843 1 -2 2 26 20850.90 18460.50 915.56 o
3844 3 -2 2 26 20889.70 17400.10 697.79 o
3844 2 2 -2 -26 20889.70 17400.10 697.79 o
3844 1 2 -2 26 20889.70 17400.10 697.79 o
3845 3 1 -2 26 4430.77 4193.76 641.35 o
3845 1 -1 2 26 4430.77 4193.76 641.35 o
3846 3 -1 2 26 4430.59 4739.74 648.26 o
3846 1 1 -2 26 4430.59 4739.74 648.26 o
3847 3 0 -2 26 7255.42 6583.41 690.18 o
3847 2 -2 0 -26 7255.42 6583.41 690.18 o
3847 1 0 2 26 7255.42 6583.41 690.18 o
3848 3 0 2 26 7237.85 8711.94 683.70 o
3848 2 2 0 -26 7237.85 8711.94 683.70 o
3848 1 0 -2 26 7237.85 8711.94 683.70 o
3849 3 -1 -2 26 4430.77 3782.30 689.41 o
3849 1 1 2 26 4430.77 3782.30 689.41 o
3850 3 1 2 26 4430.59 3442.05 697.75 o
3850 1 -1 -2 26 4430.59 3442.05 697.75 o
3851 3 -2 -2 26 20917.00 17249.80 898.65 o
3851 2 -2 -2 -26 20917.00 17249.80 898.65 o
3851 1 2 2 26 20917.00 17249.80 898.65 o
3852 3 2 2 26 20823.60 18911.50 873.97 o
3852 2 2 2 -26 20823.60 18911.50 873.97 o
3852 1 -2 -2 26 20823.60 18911.50 873.97 o
3853 3 -3 -2 26 648.47 1218.56 862.31 <
3853 1 3 2 26 648.47 1218.56 862.31 <
3854 3 3 2 26 648.44 1076.13 767.40 <
3854 1 -3 -2 26 648.44 1076.13 767.40 <
3855 3 -4 -2 26 882.86 862.49 815.02 <
3855 2 -2 -4 -26 882.86 862.49 815.02 <
3855 1 4 2 26 882.86 862.49 815.02 <
3856 3 4 2 26 883.49 332.34 751.81 <
3856 2 2 4 -26 883.49 332.34 751.81 <
3856 1 -4 -2 26 883.49 332.34 751.81 <
3857 3 -5 -2 26 1981.61 1859.50 751.79 o
3857 1 5 2 26 1981.61 1859.50 751.79 o
3858 3 5 2 26 1981.35 1218.56 839.11 <
3858 1 -5 -2 26 1981.35 1218.56 839.11 <
3859 3 -6 -2 26 2487.15 1819.93 633.59 o
3859 2 -2 -6 -26 2487.15 1819.93 633.59 o
3859 1 6 2 26 2487.15 1819.93 633.59 o
3860 3 6 2 26 2466.16 672.58 886.91 <
3860 2 2 6 -26 2466.16 672.58 886.91 <
3860 1 -6 -2 26 2466.16 672.58 886.91 <
3861 3 -7 -2 26 221.81 783.36 656.62 <
3861 1 7 2 26 221.81 783.36 656.62 <
3862 3 7 2 26 222.26 379.81 846.65 <
3862 1 -7 -2 26 222.26 379.81 846.65 <
3863 3 -8 -2 26 100.19 1115.70 648.52 <
3863 2 -2 -8 -26 100.19 1115.70 648.52 <
3863 1 8 2 26 100.19 1115.70 648.52 <
3864 3 7 -4 26 131.54 1202.74 901.79 <
3864 1 -7 4 26 131.54 1202.74 901.79 <
3865 3 -7 4 26 131.37 -221.56 514.31 <
3865 1 7 -4 26 131.37 -221.56 514.31 <
3866 3 6 -4 26 266.83 751.71 838.66 <
3866 2 -4 6 -26 266.83 751.71 838.66 <
3866 1 -6 4 26 266.83 751.71 838.66 <
3867 3 -6 4 26 262.85 31.65 506.43 <
3867 2 4 -6 -26 262.85 31.65 506.43 <
3867 1 6 -4 26 262.85 31.65 506.43 <
3868 3 5 -4 26 561.83 498.50 735.90 <
3868 1 -5 4 26 561.83 498.50 735.90 <
3869 3 -5 4 26 561.35 664.67 522.21 <
3869 1 5 -4 26 561.35 664.67 522.21 <
3870 3 4 -4 26 4572.88 4747.65 798.91 o
3870 2 -4 4 -26 4572.88 4747.65 798.91 o
3870 1 -4 4 26 4572.88 4747.65 798.91 o
3871 3 -4 4 26 4579.96 3054.32 525.01 o
3871 2 4 -4 -26 4579.96 3054.32 525.01 o
3871 1 4 -4 26 4579.96 3054.32 525.01 o
3872 3 3 -4 26 1414.30 2318.44 798.58 o
3872 1 -3 4 26 1414.30 2318.44 798.58 o
3873 3 -3 4 26 1412.65 1060.31 538.27 <
3873 1 3 -4 26 1412.65 1060.31 538.27 <
3874 3 2 -4 26 742.71 1360.99 830.61 <
3874 2 -4 2 -26 742.71 1360.99 830.61 <
3874 1 -2 4 26 742.71 1360.99 830.61 <
3875 3 -2 4 26 743.98 585.54 538.12 <
3875 2 4 -2 -26 743.98 585.54 538.12 <
3875 1 2 -4 26 743.98 585.54 538.12 <
3876 3 1 -4 26 1504.49 1242.30 854.69 <
3876 1 -1 4 26 1504.49 1242.30 854.69 <
3877 3 -1 4 26 1506.63 1266.04 554.05 o
3877 1 1 -4 26 1506.63 1266.04 554.05 o
3878 3 0 -4 26 9260.39 10334.10 898.88 o
3878 2 -4 0 -26 9260.39 10334.10 898.88 o
3878 1 0 4 26 9260.39 10334.10 898.88 o
3879 3 0 4 26 9228.81 8221.35 778.41 o
3879 2 4 0 -26 9228.81 8221.35 778.41 o
3879 1 0 -4 26 9228.81 8221.35 778.41 o
3880 3 -1 -4 26 1504.49 1550.90 854.55 <
3880 1 1 4 26 1504.49 1550.90 854.55 <
3881 3 1 4 26 1506.63 1353.08 854.65 <
3881 1 -1 -4 26 1506.63 1353.08 854.65 <
3882 3 -2 -4 26 743.58 0.00 838.81 <
3882 2 -4 -2 -26 743.58 0.00 838.81 <
3882 1 2 4 26 743.58 0.00 838.81 <
3883 3 2 4 26 743.12 1194.83 830.69 <
3883 2 4 2 -26 743.12 1194.83 830.69 <
3883 1 -2 -4 26 743.12 1194.83 830.69 <
3884 3 -3 -4 26 1414.30 1685.42 886.10 <
3884 1 3 4 26 1414.30 1685.42 886.10 <
3885 3 3 4 26 1412.65 -158.26 823.11 <
3885 1 -3 -4 26 1412.65 -158.26 823.11 <
3886 3 -4 -4 26 4584.93 2832.77 880.13 o
3886 2 -4 -4 -26 4584.93 2832.77 880.13 o
3886 1 4 4 26 4584.93 2832.77 880.13 o
3887 3 4 4 26 4567.90 4407.40 862.71 o
3887 2 4 4 -26 4567.90 4407.40 862.71 o
3887 1 -4 -4 26 4567.90 4407.40 862.71 o
3888 3 -5 -4 26 561.83 1210.65 862.29 <
3888 1 5 4 26 561.83 1210.65 862.29 <
3889 3 5 4 26 561.35 712.15 751.68 <
3889 1 -5 -4 26 561.35 712.15 751.68 <
3890 3 -6 -4 26 262.99 1281.87 878.02 <
3890 2 -4 -6 -26 262.99 1281.87 878.02 <
3890 1 6 4 26 262.99 1281.87 878.02 <
3891 3 6 4 26 266.69 411.46 878.30 <
3891 2 4 6 -26 266.69 411.46 878.30 <
3891 1 -6 -4 26 266.69 411.46 878.30 <
3892 3 -7 -4 26 131.54 1835.76 933.09 <
3892 1 7 4 26 131.54 1835.76 933.09 <
3893 3 7 4 26 131.37 1519.25 901.62 <
3893 1 -7 -4 26 131.37 1519.25 901.62 <
3894 3 6 -6 26 1089.48 1511.34 893.97 <
3894 2 -6 6 -26 1089.48 1511.34 893.97 <
3894 1 -6 6 26 1089.48 1511.34 893.97 <
3895 3 -6 6 26 1092.88 1677.50 521.80 o
3895 2 6 -6 -26 1092.88 1677.50 521.80 o
3895 1 6 -6 26 1092.88 1677.50 521.80 o
3896 3 5 -6 26 111.58 340.25 846.65 <
3896 1 -5 6 26 111.58 340.25 846.65 <
3897 3 -5 6 26 111.80 601.37 506.30 <
3897 1 5 -6 26 111.80 601.37 506.30 <
3898 3 4 -6 26 230.71 -696.32 878.21 <
3898 2 -6 4 -26 230.71 -696.32 878.21 <
3898 1 -4 6 26 230.71 -696.32 878.21 <
3899 3 -4 6 26 232.63 458.94 569.68 <
3899 2 6 -4 -26 232.63 458.94 569.68 <
3899 1 4 -6 26 232.63 458.94 569.68 <
3900 3 3 -6 26 607.13 2310.52 901.18 o
3900 1 -3 6 26 607.13 2310.52 901.18 o
3901 3 -3 6 26 607.88 419.38 553.94 <
3901 1 3 -6 26 607.88 419.38 553.94 <
3902 3 2 -6 26 2287.86 2642.86 893.87 o
3902 2 -6 2 -26 2287.86 2642.86 893.87 o
3902 1 -2 6 26 2287.86 2642.86 893.87 o
3903 3 -2 6 26 2290.03 1171.09 554.72 o
3903 2 6 -2 -26 2290.03 1171.09 554.72 o
3903 1 2 -6 26 2290.03 1171.09 554.72 o
3904 3 1 -6 26 622.17 94.95 870.45 <
3904 1 -1 6 26 622.17 94.95 870.45 <
3905 3 -1 6 26 620.68 142.43 625.17 <
3905 1 1 -6 26 620.68 142.43 625.17 <
3906 3 0 -6 26 228.87 1028.66 862.30 <
3906 2 -6 0 -26 228.87 1028.66 862.30 <
3906 1 0 6 26 228.87 1028.66 862.30 <
3907 3 0 6 26 230.91 538.07 846.62 <
3907 2 6 0 -26 230.91 538.07 846.62 <
3907 1 0 -6 26 230.91 538.07 846.62 <
3908 3 -1 -6 26 622.17 1448.03 862.19 <
3908 1 1 6 26 622.17 1448.03 862.19 <
3909 3 1 6 26 620.68 466.85 862.52 <
3909 1 -1 -6 26 620.68 466.85 862.52 <
3910 3 -2 -6 26 2297.10 2073.14 854.73 o
3910 2 -6 -2 -26 2297.10 2073.14 854.73 o
3910 1 2 6 26 2297.10 2073.14 854.73 o
3911 3 2 6 26 2280.78 -300.68 862.94 <
3911 2 6 2 -26 2280.78 -300.68 862.94 <
3911 1 -2 -6 26 2280.78 -300.68 862.94 <
3912 3 -3 -6 26 607.13 3109.71 844.87 o
3912 1 3 6 26 607.13 3109.71 844.87 o
3913 3 3 6 26 607.88 1978.19 743.05 o
3913 1 -3 -6 26 607.88 1978.19 743.05 o
3914 3 -4 -6 26 231.04 640.93 933.65 <
3914 2 -6 -4 -26 231.04 640.93 933.65 <
3914 1 4 6 26 231.04 640.93 933.65 <
3915 3 4 6 26 232.29 1630.03 909.49 <
3915 2 6 4 -26 232.29 1630.03 909.49 <
3915 1 -4 -6 26 232.29 1630.03 909.49 <
3916 3 -5 -6 26 111.58 419.38 878.29 <
3916 1 5 6 26 111.58 419.38 878.29 <
3917 3 5 6 26 111.80 1606.29 901.56 <
3917 1 -5 -6 26 111.80 1606.29 901.56 <
3918 3 -6 -6 26 1095.26 3093.89 956.09 o
3918 2 -6 -6 -26 1095.26 3093.89 956.09 o
3918 1 6 6 26 1095.26 3093.89 956.09 o
3919 3 6 6 26 1087.09 1732.89 965.09 <
3919 2 6 6 -26 1087.09 1732.89 965.09 <
3919 1 -6 -6 26 1087.09 1732.89 965.09 <
3920 3 3 -8 26 70.80 1281.87 980.89 <
3920 1 -3 8 26 70.80 1281.87 980.89 <
3921 3 -3 8 26 70.69 696.32 601.23 <
3921 1 3 -8 26 70.69 696.32 601.23 <
3922 3 2 -8 26 66.46 -23.74 886.23 <
3922 2 -8 2 -26 66.46 -23.74 886.23 <
3922 1 -2 8 26 66.46 -23.74 886.23 <
3923 3 -2 8 26 68.02 1171.09 656.40 <
3923 2 8 -2 -26 68.02 1171.09 656.40 <
3923 1 2 -8 26 68.02 1171.09 656.40 <
3924 3 1 -8 26 214.51 822.93 894.03 <
3924 1 -1 8 26 214.51 822.93 894.03 <
3925 3 -1 8 26 214.96 482.68 735.85 <
3925 1 1 -8 26 214.96 482.68 735.85 <
3926 3 0 -8 26 580.48 688.41 807.08 <
3926 2 -8 0 -26 580.48 688.41 807.08 <
3926 1 0 8 26 580.48 688.41 807.08 <
3927 3 0 8 26 578.03 735.89 807.07 <
3927 2 8 0 -26 578.03 735.89 807.07 <
3927 1 0 -8 26 578.03 735.89 807.07 <
3928 3 -1 -8 26 214.51 205.73 894.14 <
3928 1 1 8 26 214.51 205.73 894.14 <
3929 3 1 8 26 214.96 1155.26 885.99 <
3929 1 -1 -8 26 214.96 1155.26 885.99 <
3930 3 -2 -8 26 66.79 672.58 799.09 <
3930 2 -8 -2 -26 66.79 672.58 799.09 <
3930 1 2 8 26 66.79 672.58 799.09 <
3931 3 2 8 26 67.69 2231.40 790.17 o
3931 2 8 2 -26 67.69 2231.40 790.17 o
3931 1 -2 -8 26 67.69 2231.40 790.17 o
3932 3 -3 -8 26 70.80 514.33 989.05 <
3932 1 3 8 26 70.80 514.33 989.05 <
3933 3 3 8 26 70.69 1163.17 996.77 <
3933 1 -3 -8 26 70.69 1163.17 996.77 <
3934 3 8 -1 27 16.66 261.12 981.17 <
3934 1 -8 1 27 16.66 261.12 981.17 <
3935 3 -8 1 27 16.49 181.99 553.88 <
3935 1 8 -1 27 16.49 181.99 553.88 <
3936 3 7 -1 27 583.49 727.97 965.33 <
3936 2 -1 7 -27 583.49 727.97 965.33 <
3936 1 -7 1 27 583.49 727.97 965.33 <
3937 3 -7 1 27 583.93 1408.47 577.20 o
3937 2 1 -7 -27 583.93 1408.47 577.20 o
3937 1 7 -1 27 583.93 1408.47 577.20 o
3938 3 6 -1 27 626.90 1202.74 870.22 <
3938 1 -6 1 27 626.90 1202.74 870.22 <
3939 3 -6 1 27 625.17 822.93 530.08 <
3939 1 6 -1 27 625.17 822.93 530.08 <
3940 3 5 -1 27 1007.25 1796.20 767.12 o
3940 2 -1 5 -27 1007.25 1796.20 767.12 o
3940 1 -5 1 27 1007.25 1796.20 767.12 o
3941 3 -5 1 27 1005.73 1345.17 624.93 o
3941 2 1 -5 -27 1005.73 1345.17 624.93 o
3941 1 5 -1 27 1005.73 1345.17 624.93 o
3942 3 4 -1 27 2287.58 3022.67 552.91 o
3942 1 -4 1 27 2287.58 3022.67 552.91 o
3943 3 -4 1 27 2288.33 2437.13 648.70 o
3943 1 4 -1 27 2288.33 2437.13 648.70 o
3944 3 3 -1 27 1261.74 1914.89 640.47 o
3944 2 -1 3 -27 1261.74 1914.89 640.47 o
3944 1 -3 1 27 1261.74 1914.89 640.47 o
3945 3 -3 1 27 1261.93 1764.54 648.52 o
3945 2 1 -3 -27 1261.93 1764.54 648.52 o
3945 1 3 -1 27 1261.93 1764.54 648.52 o
3946 3 2 -1 27 2015.04 2785.29 679.73 o
3946 1 -2 1 27 2015.04 2785.29 679.73 o
3947 3 -2 1 27 2019.92 3046.41 695.26 o
3947 1 2 -1 27 2019.92 3046.41 695.26 o
3948 3 1 -1 27 668.07 909.97 640.85 <
3948 2 -1 1 -27 668.07 909.97 640.85 <
3948 1 -1 1 27 668.07 909.97 640.85 <
3949 3 -1 1 27 670.52 1305.60 735.63 <
3949 2 1 -1 -27 670.52 1305.60 735.63 <
3949 1 1 -1 27 670.52 1305.60 735.63 <
3950 3 -1 -1 27 672.23 957.44 680.40 <
3950 2 -1 -1 -27 672.23 957.44 680.40 <
3950 1 1 1 27 672.23 957.44 680.40 <
3951 3 1 1 27 666.35 1068.22 624.95 <
3951 2 1 1 -27 666.35 1068.22 624.95 <
3951 1 -1 -1 27 666.35 1068.22 624.95 <
3952 3 -2 -1 27 2015.04 1899.06 641.03 o
3952 1 2 1 27 2015.04 1899.06 641.03 o
3953 3 2 1 27 2019.92 2365.91 648.53 o
3953 1 -2 -1 27 2019.92 2365.91 648.53 o
3954 3 -3 -1 27 1262.32 1440.12 696.23 o
3954 2 -1 -3 -27 1262.32 1440.12 696.23 o
3954 1 3 1 27 1262.32 1440.12 696.23 o
3955 3 3 1 27 1261.35 1772.46 656.43 o
3955 2 1 3 -27 1261.35 1772.46 656.43 o
3955 1 -3 -1 27 1261.35 1772.46 656.43 o
3956 3 -4 -1 27 2287.58 2413.39 719.95 o
3956 1 4 1 27 2287.58 2413.39 719.95 o
3957 3 4 1 27 2288.33 2532.08 648.60 o
3957 1 -4 -1 27 2288.33 2532.08 648.60 o
3958 3 -5 -1 27 1007.01 1123.61 704.19 <
3958 2 -1 -5 -27 1007.01 1123.61 704.19 <
3958 1 5 1 27 1007.01 1123.61 704.19 <
3959 3 5 1 27 1005.96 1353.08 640.75 o
3959 2 1 5 -27 1005.96 1353.08 640.75 o
3959 1 -5 -1 27 1005.96 1353.08 640.75 o
3960 3 -6 -1 27 626.90 1171.09 719.86 <
3960 1 6 1 27 626.90 1171.09 719.86 <
3961 3 6 1 27 625.17 1424.30 672.22 o
3961 1 -6 -1 27 625.17 1424.30 672.22 o
3962 3 -7 -1 27 583.03 395.64 728.01 <
3962 2 -1 -7 -27 583.03 395.64 728.01 <
3962 1 7 1 27 583.03 395.64 728.01 <
3963 3 7 1 27 584.40 427.29 625.14 <
3963 2 1 7 -27 584.40 427.29 625.14 <
3963 1 -7 -1 27 584.40 427.29 625.14 <
3964 3 -8 -1 27 16.66 538.07 498.40 <
3964 1 8 1 27 16.66 538.07 498.40 <
3965 3 7 -3 27 376.52 102.87 822.94 <
3965 2 -3 7 -27 376.52 102.87 822.94 <
3965 1 -7 3 27 376.52 102.87 822.94 <
3966 3 -7 3 27 378.16 348.16 538.07 <
3966 2 3 -7 -27 378.16 348.16 538.07 <
3966 1 7 -3 27 378.16 348.16 538.07 <
3967 3 6 -3 27 95.82 -363.99 854.55 <
3967 1 -6 3 27 95.82 -363.99 854.55 <
3968 3 -6 3 27 94.39 -118.69 474.76 <
3968 1 6 -3 27 94.39 -118.69 474.76 <
3969 3 5 -3 27 1119.45 2120.62 759.00 o
3969 2 -3 5 -27 1119.45 2120.62 759.00 o
3969 1 -5 3 27 1119.45 2120.62 759.00 o
3970 3 -5 3 27 1122.76 1519.25 506.13 o
3970 2 3 -5 -27 1122.76 1519.25 506.13 o
3970 1 5 -3 27 1122.76 1519.25 506.13 o
3971 3 4 -3 27 498.38 870.40 909.89 <
3971 1 -4 3 27 498.38 870.40 909.89 <
3972 3 -4 3 27 498.09 1242.30 498.11 o
3972 1 4 -3 27 498.09 1242.30 498.11 o
3973 3 3 -3 27 1097.03 1550.90 909.78 <
3973 2 -3 3 -27 1097.03 1550.90 909.78 <
3973 1 -3 3 27 1097.03 1550.90 909.78 <
3974 3 -3 3 27 1102.89 1448.03 474.51 o
3974 2 3 -3 -27 1102.89 1448.03 474.51 o
3974 1 3 -3 27 1102.89 1448.03 474.51 o
3975 3 2 -3 27 400.52 -680.50 933.61 <
3975 1 -2 3 27 400.52 -680.50 933.61 <
3976 3 -2 3 27 403.30 269.03 514.35 <
3976 1 2 -3 27 403.30 269.03 514.35 <
3977 3 1 -3 27 1244.61 735.89 862.63 <
3977 2 -3 1 -27 1244.61 735.89 862.63 <
3977 1 -1 3 27 1244.61 735.89 862.63 <
3978 3 -1 3 27 1245.30 1756.63 513.91 o
3978 2 3 -1 -27 1245.30 1756.63 513.91 o
3978 1 1 -3 27 1245.30 1756.63 513.91 o
3979 3 -1 -3 27 1245.54 2445.04 972.60 o
3979 2 -3 -1 -27 1245.54 2445.04 972.60 o
3979 1 1 3 27 1245.54 2445.04 972.60 o
3980 3 1 3 27 1244.37 1653.77 838.55 <
3980 2 3 1 -27 1244.37 1653.77 838.55 <
3980 1 -1 -3 27 1244.37 1653.77 838.55 <
3981 3 -2 -3 27 400.52 -727.97 854.45 <
3981 1 2 3 27 400.52 -727.97 854.45 <
3982 3 2 3 27 403.30 933.71 846.54 <
3982 1 -2 -3 27 403.30 933.71 846.54 <
3983 3 -3 -3 27 1107.01 142.43 846.81 <
3983 2 -3 -3 -27 1107.01 142.43 846.81 <
3983 1 3 3 27 1107.01 142.43 846.81 <
3984 3 3 3 27 1092.92 2524.17 821.98 o
3984 2 3 3 -27 1092.92 2524.17 821.98 o
3984 1 -3 -3 27 1092.92 2524.17 821.98 o
3985 3 -4 -3 27 498.38 1329.34 885.97 <
3985 1 4 3 27 498.38 1329.34 885.97 <
3986 3 4 3 27 498.09 371.90 838.77 <
3986 1 -4 -3 27 498.09 371.90 838.77 <
3987 3 -5 -3 27 1122.65 -1392.64 885.81 <
3987 2 -3 -5 -27 1122.65 -1392.64 885.81 <
3987 1 5 3 27 1122.65 -1392.64 885.81 <
3988 3 5 3 27 1119.56 1463.86 894.00 <
3988 2 3 5 -27 1119.56 1463.86 894.00 <
3988 1 -5 -3 27 1119.56 1463.86 894.00 <
3989 3 -6 -3 27 95.82 79.13 854.58 <
3989 1 6 3 27 95.82 79.13 854.58 <
3990 3 6 3 27 94.40 -1519.25 877.84 <
3990 1 -6 -3 27 94.40 -1519.25 877.84 <
3991 3 -7 -3 27 378.02 1076.13 735.67 <
3991 2 -3 -7 -27 378.02 1076.13 735.67 <
3991 1 7 3 27 378.02 1076.13 735.67 <
3992 3 7 3 27 376.67 949.53 854.44 <
3992 2 3 7 -27 376.67 949.53 854.44 <
3992 1 -7 -3 27 376.67 949.53 854.44 <
3993 3 6 -5 27 11.73 846.66 806.94 <
3993 1 -6 5 27 11.73 846.66 806.94 <
3994 3 -6 5 27 11.23 300.68 530.12 <
3994 1 6 -5 27 11.23 300.68 530.12 <
3995 3 5 -5 27 510.62 1163.17 862.30 <
3995 2 -5 5 -27 510.62 1163.17 862.30 <
3995 1 -5 5 27 510.62 1163.17 862.30 <
3996 3 -5 5 27 511.55 1107.79 490.30 o
3996 2 5 -5 -27 511.55 1107.79 490.30 o
3996 1 5 -5 27 511.55 1107.79 490.30 o
3997 3 4 -5 27 42.66 276.95 862.48 <
3997 1 -4 5 27 42.66 276.95 862.48 <
3998 3 -4 5 27 42.22 886.23 545.73 <
3998 1 4 -5 27 42.22 886.23 545.73 <
3999 3 3 -5 27 1117.09 1044.48 838.78 <
3999 2 -5 3 -27 1117.09 1044.48 838.78 <
3999 1 -3 5 27 1117.09 1044.48 838.78 <
4000 3 -3 5 27 1115.52 482.68 538.28 <
4000 2 5 -3 -27 1115.52 482.68 538.28 <
4000 1 3 -5 27 1115.52 482.68 538.28 <
4001 3 2 -5 27 26.27 538.07 807.04 <
4001 1 -2 5 27 26.27 538.07 807.04 <
4002 3 -2 5 27 26.38 -79.13 553.89 <
4002 1 2 -5 27 26.38 -79.13 553.89 <
4003 3 1 -5 27 990.95 1487.60 854.37 <
4003 2 -5 1 -27 990.95 1487.60 854.37 <
4003 1 -1 5 27 990.95 1487.60 854.37 <
4004 3 -1 5 27 994.17 1416.38 593.22 o
4004 2 5 -1 -27 994.17 1416.38 593.22 o
4004 1 1 -5 27 994.17 1416.38 593.22 o
4005 3 -1 -5 27 994.07 1392.64 878.16 <
4005 2 -5 -1 -27 994.07 1392.64 878.16 <
4005 1 1 5 27 994.07 1392.64 878.16 <
4006 3 1 5 27 991.04 1740.81 885.89 <
4006 2 5 1 -27 991.04 1740.81 885.89 <
4006 1 -1 -5 27 991.04 1740.81 885.89 <
4007 3 -2 -5 27 26.27 -799.19 846.53 <
4007 1 2 5 27 26.27 -799.19 846.53 <
4008 3 2 5 27 26.38 1812.02 845.98 o
4008 1 -2 -5 27 26.38 1812.02 845.98 o
4009 3 -3 -5 27 1116.83 1709.16 862.21 <
4009 2 -5 -3 -27 1116.83 1709.16 862.21 <
4009 1 3 5 27 1116.83 1709.16 862.21 <
4010 3 3 5 27 1115.78 2191.83 861.88 o
4010 2 5 3 -27 1115.78 2191.83 861.88 o
4010 1 -3 -5 27 1115.78 2191.83 861.88 o
4011 3 -4 -5 27 42.66 1179.00 878.04 <
4011 1 4 5 27 42.66 1179.00 878.04 <
4012 3 4 5 27 42.22 -1535.07 862.00 <
4012 1 -4 -5 27 42.22 -1535.07 862.00 <
4013 3 -5 -5 27 512.20 1487.60 806.73 <
4013 2 -5 -5 -27 512.20 1487.60 806.73 <
4013 1 5 5 27 512.20 1487.60 806.73 <
4014 3 5 5 27 509.97 -443.11 917.84 <
4014 2 5 5 -27 509.97 -443.11 917.84 <
4014 1 -5 -5 27 509.97 -443.11 917.84 <
4015 3 -6 -5 27 11.73 1772.46 790.57 o
4015 1 6 5 27 11.73 1772.46 790.57 o
4016 3 6 5 27 11.23 1827.85 901.40 o
4016 1 -6 -5 27 11.23 1827.85 901.40 o
4017 3 4 -7 27 11.95 -648.85 822.84 <
4017 1 -4 7 27 11.95 -648.85 822.84 <
4018 3 -4 7 27 11.81 1028.66 537.72 <
4018 1 4 -7 27 11.81 1028.66 537.72 <
4019 3 3 -7 27 397.36 1273.95 822.65 <
4019 2 -7 3 -27 397.36 1273.95 822.65 <
4019 1 -3 7 27 397.36 1273.95 822.65 <
4020 3 -3 7 27 396.39 474.77 538.05 <
4020 2 7 -3 -27 396.39 474.77 538.05 <
4020 1 3 -7 27 396.39 474.77 538.05 <
4021 3 2 -7 27 14.20 -672.58 838.66 <
4021 1 -2 7 27 14.20 -672.58 838.66 <
4022 3 -2 7 27 14.38 1084.05 616.86 <
4022 1 2 -7 27 14.38 1084.05 616.86 <
4023 3 1 -7 27 622.47 1582.55 846.28 <
4023 2 -7 1 -27 622.47 1582.55 846.28 <
4023 1 -1 7 27 622.47 1582.55 846.28 <
4024 3 -1 7 27 620.48 1748.72 671.97 o
4024 2 7 -1 -27 620.48 1748.72 671.97 o
4024 1 1 -7 27 620.48 1748.72 671.97 o
4025 3 -1 -7 27 620.28 2286.79 885.36 o
4025 2 -7 -1 -27 620.28 2286.79 885.36 o
4025 1 1 7 27 620.28 2286.79 885.36 o
4026 3 1 7 27 622.67 340.25 791.32 <
4026 2 7 1 -27 622.67 340.25 791.32 <
4026 1 -1 -7 27 622.67 340.25 791.32 <
4027 3 -2 -7 27 14.20 435.20 917.84 <
4027 1 2 7 27 14.20 435.20 917.84 <
4028 3 2 7 27 14.38 1313.52 941.29 <
4028 1 -2 -7 27 14.38 1313.52 941.29 <
4029 3 -3 -7 27 397.00 1107.79 822.73 <
4029 2 -7 -3 -27 397.00 1107.79 822.73 <
4029 1 3 7 27 397.00 1107.79 822.73 <
4030 3 3 7 27 396.75 902.05 917.77 <
4030 2 7 3 -27 396.75 902.05 917.77 <
4030 1 -3 -7 27 396.75 902.05 917.77 <
4031 3 -4 -7 27 11.94 1685.42 901.50 <
4031 1 4 7 27 11.94 1685.42 901.50 <
4032 3 4 7 27 11.81 1653.77 885.68 <
4032 1 -4 -7 27 11.81 1653.77 885.68 <
4033 3 0 0 28 13826.30 13839.40 751.65 o
4033 2 0 0 -28 13826.30 13839.40 751.65 o
4033 1 0 0 28 13826.30 13839.40 751.65 o
4034 3 -1 0 28 39.93 704.23 617.06 <
4034 1 1 0 28 39.93 704.23 617.06 <
4035 3 1 0 28 39.93 680.50 569.58 <
4035 1 -1 0 28 39.93 680.50 569.58 <
4036 3 -2 0 28 4826.54 4439.06 681.19 o
4036 2 0 -2 -28 4826.54 4439.06 681.19 o
4036 1 2 0 28 4826.54 4439.06 681.19 o
4037 3 2 0 28 4760.44 4518.18 649.30 o
4037 2 0 2 -28 4760.44 4518.18 649.30 o
4037 1 -2 0 28 4760.44 4518.18 649.30 o
4038 3 -3 0 28 754.66 1321.43 680.24 <
4038 1 3 0 28 754.66 1321.43 680.24 <
4039 3 3 0 28 754.65 1748.72 600.74 o
4039 1 -3 0 28 754.65 1748.72 600.74 o
4040 3 -4 0 28 382.45 110.78 712.17 <
4040 2 0 -4 -28 382.45 110.78 712.17 <
4040 1 4 0 28 382.45 110.78 712.17 <
4041 3 4 0 28 353.09 545.98 664.63 <
4041 2 0 4 -28 353.09 545.98 664.63 <
4041 1 -4 0 28 353.09 545.98 664.63 <
4042 3 -5 0 28 227.29 -229.47 688.40 <
4042 1 5 0 28 227.29 -229.47 688.40 <
4043 3 5 0 28 227.28 -403.55 601.32 <
4043 1 -5 0 28 227.28 -403.55 601.32 <
4044 3 -6 0 28 580.03 870.40 704.15 <
4044 2 0 -6 -28 580.03 870.40 704.15 <
4044 1 6 0 28 580.03 870.40 704.15 <
4045 3 6 0 28 578.99 917.88 917.80 <
4045 2 0 6 -28 578.99 917.88 917.80 <
4045 1 -6 0 28 578.99 917.88 917.80 <
4046 3 -7 0 28 55.43 751.71 537.89 <
4046 1 7 0 28 55.43 751.71 537.89 <
4047 3 7 0 28 55.43 -110.78 917.88 <
4047 1 -7 0 28 55.43 -110.78 917.88 <
4048 3 -8 0 28 272.09 1400.56 592.94 o
4048 2 0 -8 -28 272.09 1400.56 592.94 o
4048 1 8 0 28 272.09 1400.56 592.94 o
4049 3 8 0 28 271.21 1440.12 806.70 <
4049 2 0 8 -28 271.21 1440.12 806.70 <
4049 1 -8 0 28 271.21 1440.12 806.70 <
4050 3 8 -2 28 254.86 1321.43 814.68 <
4050 2 -2 8 -28 254.86 1321.43 814.68 <
4050 1 -8 2 28 254.86 1321.43 814.68 <
4051 3 -8 2 28 255.09 1020.75 537.78 <
4051 2 2 -8 -28 255.09 1020.75 537.78 <
4051 1 8 -2 28 255.09 1020.75 537.78 <
4052 3 7 -2 28 27.09 363.99 783.33 <
4052 1 -7 2 28 27.09 363.99 783.33 <
4053 3 -7 2 28 26.63 1194.83 537.60 o
4053 1 7 -2 28 26.63 1194.83 537.60 o
4054 3 6 -2 28 306.51 807.10 854.48 <
4054 2 -2 6 -28 306.51 807.10 854.48 <
4054 1 -6 2 28 306.51 807.10 854.48 <
4055 3 -6 2 28 311.67 1044.48 521.94 <
4055 2 2 -6 -28 311.67 1044.48 521.94 <
4055 1 6 -2 28 311.67 1044.48 521.94 <
4056 3 5 -2 28 224.49 585.54 775.39 <
4056 1 -5 2 28 224.49 585.54 775.39 <
4057 3 -5 2 28 222.29 830.84 522.05 <
4057 1 5 -2 28 222.29 830.84 522.05 <
4058 3 4 -2 28 141.14 -680.50 759.51 <
4058 2 -2 4 -28 141.14 -680.50 759.51 <
4058 1 -4 2 28 141.14 -680.50 759.51 <
4059 3 -4 2 28 153.71 237.38 545.97 <
4059 2 2 -4 -28 153.71 237.38 545.97 <
4059 1 4 -2 28 153.71 237.38 545.97 <
4060 3 3 -2 28 212.64 213.64 846.66 <
4060 1 -3 2 28 212.64 213.64 846.66 <
4061 3 -3 2 28 209.93 640.93 474.64 <
4061 1 3 -2 28 209.93 640.93 474.64 <
4062 3 2 -2 28 2319.63 2603.30 759.38 o
4062 2 -2 2 -28 2319.63 2603.30 759.38 o
4062 1 -2 2 28 2319.63 2603.30 759.38 o
4063 3 -2 2 28 2340.63 3101.80 632.11 o
4063 2 2 -2 -28 2340.63 3101.80 632.11 o
4063 1 2 -2 28 2340.63 3101.80 632.11 o
4064 3 1 -2 28 129.09 933.71 593.22 <
4064 1 -1 2 28 129.09 933.71 593.22 <
4065 3 -1 2 28 128.14 862.49 617.00 <
4065 1 1 -2 28 128.14 862.49 617.00 <
4066 3 0 -2 28 4898.84 4676.44 625.56 o
4066 2 -2 0 -28 4898.84 4676.44 625.56 o
4066 1 0 2 28 4898.84 4676.44 625.56 o
4067 3 0 2 28 4871.58 4177.93 642.20 o
4067 2 2 0 -28 4871.58 4177.93 642.20 o
4067 1 0 -2 28 4871.58 4177.93 642.20 o
4068 3 -1 -2 28 129.10 830.84 719.91 <
4068 1 1 2 28 129.10 830.84 719.91 <
4069 3 1 2 28 128.13 846.66 696.16 <
4069 1 -1 -2 28 128.13 846.66 696.16 <
4070 3 -2 -2 28 2355.38 3228.40 837.94 o
4070 2 -2 -2 -28 2355.38 3228.40 837.94 o
4070 1 2 2 28 2355.38 3228.40 837.94 o
4071 3 2 2 28 2304.89 2698.25 735.52 o
4071 2 2 2 -28 2304.89 2698.25 735.52 o
4071 1 -2 -2 28 2304.89 2698.25 735.52 o
4072 3 -3 -2 28 212.64 126.60 830.84 <
4072 1 3 2 28 212.64 126.60 830.84 <
4073 3 3 2 28 209.93 474.77 751.67 <
4073 1 -3 -2 28 209.93 474.77 751.67 <
4074 3 -4 -2 28 153.45 110.78 783.36 <
4074 2 -2 -4 -28 153.45 110.78 783.36 <
4074 1 4 2 28 153.45 110.78 783.36 <
4075 3 4 2 28 141.41 71.21 727.98 <
4075 2 2 4 -28 141.41 71.21 727.98 <
4075 1 -4 -2 28 141.41 71.21 727.98 <
4076 3 -5 -2 28 224.49 1740.81 774.81 o
4076 1 5 2 28 224.49 1740.81 774.81 o
4077 3 5 2 28 222.29 981.18 965.20 <
4077 1 -5 -2 28 222.29 981.18 965.20 <
4078 3 -6 -2 28 309.91 633.02 640.86 <
4078 2 -2 -6 -28 309.91 633.02 640.86 <
4078 1 6 2 28 309.91 633.02 640.86 <
4079 3 6 2 28 308.27 799.19 909.88 <
4079 2 2 6 -28 308.27 799.19 909.88 <
4079 1 -6 -2 28 308.27 799.19 909.88 <
4080 3 -7 -2 28 27.09 1163.17 688.06 <
4080 1 7 2 28 27.09 1163.17 688.06 <
4081 3 7 2 28 26.63 775.45 862.37 <
4081 1 -7 -2 28 26.63 775.45 862.37 <
4082 3 -8 -2 28 253.90 482.68 664.63 <
4082 2 -2 -8 -28 253.90 482.68 664.63 <
4082 1 8 2 28 253.90 482.68 664.63 <
4083 3 8 2 28 256.05 1732.89 1020.27 <
4083 2 2 8 -28 256.05 1732.89 1020.27 <
4083 1 -8 -2 28 256.05 1732.89 1020.27 <
4084 3 7 -4 28 27.57 419.38 870.37 <
4084 1 -7 4 28 27.57 419.38 870.37 <
4085 3 -7 4 28 27.08 1337.26 561.24 o
4085 1 7 -4 28 27.08 1337.26 561.24 o
4086 3 6 -4 28 252.30 561.81 791.23 <
4086 2 -4 6 -28 252.30 561.81 791.23 <
4086 1 -6 4 28 252.30 561.81 791.23 <
4087 3 -6 4 28 252.08 925.79 529.92 <
4087 2 4 -6 -28 252.08 925.79 529.92 <
4087 1 6 -4 28 252.08 925.79 529.92 <
4088 3 5 -4 28 109.35 -181.99 735.88 <
4088 1 -5 4 28 109.35 -181.99 735.88 <
4089 3 -5 4 28 109.10 -300.68 514.29 <
4089 1 5 -4 28 109.10 -300.68 514.29 <
4090 3 4 -4 28 103.23 -245.29 735.87 <
4090 2 -4 4 -28 103.23 -245.29 735.87 <
4090 1 -4 4 28 103.23 -245.29 735.87 <
4091 3 -4 4 28 104.88 -308.60 514.29 <
4091 2 4 -4 -28 104.88 -308.60 514.29 <
4091 1 4 -4 28 104.88 -308.60 514.29 <
4092 3 3 -4 28 63.70 -261.12 799.17 <
4092 1 -3 4 28 63.70 -261.12 799.17 <
4093 3 -3 4 28 61.98 957.44 521.94 <
4093 1 3 -4 28 61.98 957.44 521.94 <
4094 3 2 -4 28 101.70 -419.38 807.06 <
4094 2 -4 2 -28 101.70 -419.38 807.06 <
4094 1 -2 4 28 101.70 -419.38 807.06 <
4095 3 -2 4 28 95.99 443.11 530.10 <
4095 2 4 -2 -28 95.99 443.11 530.10 <
4095 1 2 -4 28 95.99 443.11 530.10 <
4096 3 1 -4 28 51.04 -466.85 807.05 <
4096 1 -1 4 28 51.04 -466.85 807.05 <
4097 3 -1 4 28 50.08 245.29 530.14 <
4097 1 1 -4 28 50.08 245.29 530.14 <
4098 3 0 -4 28 262.06 -324.42 807.08 <
4098 2 -4 0 -28 262.06 -324.42 807.08 <
4098 1 0 4 28 262.06 -324.42 807.08 <
4099 3 0 4 28 249.97 403.55 664.65 <
4099 2 4 0 -28 249.97 403.55 664.65 <
4099 1 0 -4 28 249.97 403.55 664.65 <
4100 3 -1 -4 28 51.04 -545.98 822.86 <
4100 1 1 4 28 51.04 -545.98 822.86 <
4101 3 1 4 28 50.08 292.77 838.74 <
4101 1 -1 -4 28 50.08 292.77 838.74 <
4102 3 -2 -4 28 101.06 1622.11 861.97 <
4102 2 -4 -2 -28 101.06 1622.11 861.97 <
4102 1 2 4 28 101.06 1622.11 861.97 <
4103 3 2 4 28 96.63 419.38 854.55 <
4103 2 4 2 -28 96.63 419.38 854.55 <
4103 1 -2 -4 28 96.63 419.38 854.55 <
4104 3 -3 -4 28 63.70 538.07 886.17 <
4104 1 3 4 28 63.70 538.07 886.17 <
4105 3 3 4 28 61.98 1701.24 885.66 <
4105 1 -3 -4 28 61.98 1701.24 885.66 <
4106 3 -4 -4 28 106.04 189.91 878.31 <
4106 2 -4 -4 -28 106.04 189.91 878.31 <
4106 1 4 4 28 106.04 189.91 878.31 <
4107 3 4 4 28 102.07 205.73 886.22 <
4107 2 4 4 -28 102.07 205.73 886.22 <
4107 1 -4 -4 28 102.07 205.73 886.22 <
4108 3 -5 -4 28 109.35 -838.75 886.08 <
4108 1 5 4 28 109.35 -838.75 886.08 <
4109 3 5 4 28 109.10 2033.58 877.50 o
4109 1 -5 -4 28 109.10 2033.58 877.50 o
4110 3 -6 -4 28 251.04 213.64 846.67 <
4110 2 -4 -6 -28 251.04 213.64 846.67 <
4110 1 6 4 28 251.04 213.64 846.67 <
4111 3 6 4 28 253.35 474.77 727.94 <
4111 2 4 6 -28 253.35 474.77 727.94 <
4111 1 -6 -4 28 253.35 474.77 727.94 <
4112 3 -7 -4 28 27.57 1345.17 917.53 <
4112 1 7 4 28 27.57 1345.17 917.53 <
4113 3 7 4 28 27.08 569.72 917.82 <
4113 1 -7 -4 28 27.08 569.72 917.82 <
4114 3 5 -6 28 27.23 1994.01 853.76 o
4114 1 -5 6 28 27.23 1994.01 853.76 o
4115 3 -5 6 28 26.96 664.67 498.35 <
4115 1 5 -6 28 26.96 664.67 498.35 <
4116 3 4 -6 28 249.57 -474.77 886.18 <
4116 2 -6 4 -28 249.57 -474.77 886.18 <
4116 1 -4 6 28 249.57 -474.77 886.18 <
4117 3 -4 6 28 247.54 498.50 522.19 <
4117 2 6 -4 -28 247.54 498.50 522.19 <
4117 1 4 -6 28 247.54 498.50 522.19 <
4118 3 3 -6 28 91.21 1780.37 885.61 o
4118 1 -3 6 28 91.21 1780.37 885.61 o
4119 3 -3 6 28 90.80 -158.26 538.06 <
4119 1 3 -6 28 90.80 -158.26 538.06 <
4120 3 2 -6 28 354.76 -387.73 925.76 <
4120 2 -6 2 -28 354.76 -387.73 925.76 <
4120 1 -2 6 28 354.76 -387.73 925.76 <
4121 3 -2 6 28 349.09 197.82 577.65 <
4121 2 6 -2 -28 349.09 197.82 577.65 <
4121 1 2 -6 28 349.09 197.82 577.65 <
4122 3 1 -6 28 8.30 2350.09 885.12 o
4122 1 -1 6 28 8.30 2350.09 885.12 o
4123 3 -1 6 28 8.47 -189.91 640.92 <
4123 1 1 -6 28 8.47 -189.91 640.92 <
4124 3 0 -6 28 680.60 1131.52 822.78 <
4124 2 -6 0 -28 680.60 1131.52 822.78 <
4124 1 0 6 28 680.60 1131.52 822.78 <
4125 3 0 6 28 680.16 356.07 933.75 <
4125 2 6 0 -28 680.16 356.07 933.75 <
4125 1 0 -6 28 680.16 356.07 933.75 <
4126 3 -1 -6 28 8.30 1139.44 909.71 <
4126 1 1 6 28 8.30 1139.44 909.71 <
4127 3 1 6 28 8.47 1123.61 917.64 <
4127 1 -1 -6 28 8.47 1123.61 917.64 <
4128 3 -2 -6 28 350.50 1764.54 885.68 <
4128 2 -6 -2 -28 350.50 1764.54 885.68 <
4128 1 2 6 28 350.50 1764.54 885.68 <
4129 3 2 6 28 353.36 941.62 894.01 <
4129 2 6 2 -28 353.36 941.62 894.01 <
4129 1 -2 -6 28 353.36 941.62 894.01 <
4130 3 -3 -6 28 91.21 253.21 933.70 <
4130 1 3 6 28 91.21 253.21 933.70 <
4131 3 3 6 28 90.80 1052.40 759.38 <
4131 1 -3 -6 28 90.80 1052.40 759.38 <
4132 3 -4 -6 28 247.02 1669.59 909.47 <
4132 2 -6 -4 -28 247.02 1669.59 909.47 <
4132 1 4 6 28 247.02 1669.59 909.47 <
4133 3 4 6 28 250.09 704.23 775.36 <
4133 2 6 4 -28 250.09 704.23 775.36 <
4133 1 -4 -6 28 250.09 704.23 775.36 <
4134 3 -5 -6 28 27.23 -348.16 909.94 <
4134 1 5 6 28 27.23 -348.16 909.94 <
4135 3 5 6 28 26.96 1962.36 885.46 o
4135 1 -5 -6 28 26.96 1962.36 885.46 o
4136 3 2 -8 28 302.63 229.47 1012.84 <
4136 2 -8 2 -28 302.63 229.47 1012.84 <
4136 1 -2 8 28 302.63 229.47 1012.84 <
4137 3 -2 8 28 300.14 997.01 664.46 <
4137 2 8 -2 -28 300.14 997.01 664.46 <
4137 1 2 -8 28 300.14 997.01 664.46 <
4138 3 1 -8 28 20.83 1796.20 956.85 <
4138 1 -1 8 28 20.83 1796.20 956.85 <
4139 3 -1 8 28 20.75 672.58 807.00 <
4139 1 1 -8 28 20.75 672.58 807.00 <
4140 3 0 -8 28 364.79 1630.03 798.68 o
4140 2 -8 0 -28 364.79 1630.03 798.68 o
4140 1 0 8 28 364.79 1630.03 798.68 o
4141 3 0 8 28 364.42 664.67 941.57 <
4141 2 8 0 -28 364.42 664.67 941.57 <
4141 1 0 -8 28 364.42 664.67 941.57 <
4142 3 -1 -8 28 20.83 -363.99 814.98 <
4142 1 1 8 28 20.83 -363.99 814.98 <
4143 3 1 8 28 20.75 1266.04 893.83 <
4143 1 -1 -8 28 20.75 1266.04 893.83 <
4144 3 -2 -8 28 299.75 1867.41 901.43 o
4144 2 -8 -2 -28 299.75 1867.41 901.43 o
4144 1 2 8 28 299.75 1867.41 901.43 o
4145 3 2 8 28 303.03 743.80 838.67 <
4145 2 8 2 -28 303.03 743.80 838.67 <
4145 1 -2 -8 28 303.03 743.80 838.67 <
4146 3 8 -1 29 5.67 1194.83 885.94 <
4146 1 -8 1 29 5.67 1194.83 885.94 <
4147 3 -8 1 29 5.75 126.60 553.89 <
4147 1 8 -1 29 5.75 126.60 553.89 <
4148 3 7 -1 29 112.20 727.97 791.17 <
4148 2 -1 7 -29 112.20 727.97 791.17 <
4148 1 -7 1 29 112.20 727.97 791.17 <
4149 3 -7 1 29 112.38 411.46 530.11 <
4149 2 1 -7 -29 112.38 411.46 530.11 <
4149 1 7 -1 29 112.38 411.46 530.11 <
4150 3 6 -1 29 95.80 7.91 775.45 <
4150 1 -6 1 29 95.80 7.91 775.45 <
4151 3 -6 1 29 96.37 925.79 545.72 <
4151 1 6 -1 29 96.37 925.79 545.72 <
4152 3 5 -1 29 488.61 245.29 846.69 <
4152 2 -1 5 -29 488.61 245.29 846.69 <
4152 1 -5 1 29 488.61 245.29 846.69 <
4153 3 -5 1 29 485.71 1424.30 680.09 o
4153 2 1 -5 -29 485.71 1424.30 680.09 o
4153 1 5 -1 29 485.71 1424.30 680.09 o
4154 3 4 -1 29 336.20 775.45 601.25 <
4154 1 -4 1 29 336.20 775.45 601.25 <
4155 3 -4 1 29 337.72 -340.25 625.08 <
4155 1 4 -1 29 337.72 -340.25 625.08 <
4156 3 3 -1 29 4009.18 4510.27 647.95 o
4156 2 -1 3 -29 4009.18 4510.27 647.95 o
4156 1 -3 1 29 4009.18 4510.27 647.95 o
4157 3 -3 1 29 3996.43 4170.02 648.55 o
4157 2 1 -3 -29 3996.43 4170.02 648.55 o
4157 1 3 -1 29 3996.43 4170.02 648.55 o
4158 3 2 -1 29 320.49 482.68 632.99 <
4158 1 -2 1 29 320.49 482.68 632.99 <
4159 3 -2 1 29 322.60 1123.61 616.90 <
4159 1 2 -1 29 322.60 1123.61 616.90 <
4160 3 1 -1 29 12509.60 12525.90 664.59 o
4160 2 -1 1 -29 12509.60 12525.90 664.59 o
4160 1 -1 1 29 12509.60 12525.90 664.59 o
4161 3 -1 1 29 12503.40 13048.10 717.46 o
4161 2 1 -1 -29 12503.40 13048.10 717.46 o
4161 1 1 -1 29 12503.40 13048.10 717.46 o
4162 3 -1 -1 29 12498.90 13697.00 690.19 o
4162 2 -1 -1 -29 12498.90 13697.00 690.19 o
4162 1 1 1 29 12498.90 13697.00 690.19 o
4163 3 1 1 29 12514.10 13151.00 693.16 o
4163 2 1 1 -29 12514.10 13151.00 693.16 o
4163 1 -1 -1 29 12514.10 13151.00 693.16 o
4164 3 -2 -1 29 320.49 664.67 680.42 <
4164 1 2 1 29 320.49 664.67 680.42 <
4165 3 2 1 29 322.60 427.29 601.35 <
4165 1 -2 -1 29 322.60 427.29 601.35 <
4166 3 -3 -1 29 3998.94 5072.08 726.12 o
4166 2 -1 -3 -29 3998.94 5072.08 726.12 o
4166 1 3 1 29 3998.94 5072.08 726.12 o
4167 3 3 1 29 4006.66 4723.91 695.09 o
4167 2 1 3 -29 4006.66 4723.91 695.09 o
4167 1 -3 -1 29 4006.66 4723.91 695.09 o
4168 3 -4 -1 29 336.20 1139.44 696.05 <
4168 1 4 1 29 336.20 1139.44 696.05 <
4169 3 4 1 29 337.73 545.98 632.98 <
4169 1 -4 -1 29 337.73 545.98 632.98 <
4170 3 -5 -1 29 487.08 1297.69 743.50 <
4170 2 -1 -5 -29 487.08 1297.69 743.50 <
4170 1 5 1 29 487.08 1297.69 743.50 <
4171 3 5 1 29 487.24 -31.65 625.14 <
4171 2 1 5 -29 487.24 -31.65 625.14 <
4171 1 -5 -1 29 487.24 -31.65 625.14 <
4172 3 -6 -1 29 95.80 -1028.66 735.62 <
4172 1 6 1 29 95.80 -1028.66 735.62 <
4173 3 6 1 29 96.37 94.95 664.67 <
4173 1 -6 -1 29 96.37 94.95 664.67 <
4174 3 -7 -1 29 112.12 356.07 759.60 <
4174 2 -1 -7 -29 112.12 356.07 759.60 <
4174 1 7 1 29 112.12 356.07 759.60 <
4175 3 7 1 29 112.46 791.28 648.69 <
4175 2 1 7 -29 112.46 791.28 648.69 <
4175 1 -7 -1 29 112.46 791.28 648.69 <
4176 3 -8 -1 29 5.67 601.37 537.95 <
4176 1 8 1 29 5.67 601.37 537.95 <
4177 3 7 -3 29 99.67 609.28 807.03 <
4177 2 -3 7 -29 99.67 609.28 807.03 <
4177 1 -7 3 29 99.67 609.28 807.03 <
4178 3 -7 3 29 100.23 1107.79 537.68 o
4178 2 3 -7 -29 100.23 1107.79 537.68 o
4178 1 7 -3 29 100.23 1107.79 537.68 o
4179 3 6 -3 29 32.38 1400.56 798.76 <
4179 1 -6 3 29 32.38 1400.56 798.76 <
4180 3 -6 3 29 32.86 1289.78 553.37 o
4180 1 6 -3 29 32.86 1289.78 553.37 o
4181 3 5 -3 29 316.20 1115.70 727.72 <
4181 2 -3 5 -29 316.20 1115.70 727.72 <
4181 1 -5 3 29 316.20 1115.70 727.72 <
4182 3 -5 3 29 316.80 395.64 530.14 <
4182 2 3 -5 -29 316.80 395.64 530.14 <
4182 1 5 -3 29 316.80 395.64 530.14 <
4183 3 4 -3 29 86.84 1163.17 767.24 <
4183 1 -4 3 29 86.84 1163.17 767.24 <
4184 3 -4 3 29 88.59 205.73 514.32 <
4184 1 4 -3 29 88.59 205.73 514.32 <
4185 3 3 -3 29 1598.94 2809.03 972.47 o
4185 2 -3 3 -29 1598.94 2809.03 972.47 o
4185 1 -3 3 29 1598.94 2809.03 972.47 o
4186 3 -3 3 29 1603.89 1661.68 514.28 o
4186 2 3 -3 -29 1603.89 1661.68 514.28 o
4186 1 3 -3 29 1603.89 1661.68 514.28 o
4187 3 2 -3 29 26.17 601.37 957.38 <
4187 1 -2 3 29 26.17 601.37 957.38 <
4188 3 -2 3 29 27.25 799.19 593.27 <
4188 1 2 -3 29 27.25 799.19 593.27 <
4189 3 1 -3 29 4130.72 4977.12 877.11 o
4189 2 -3 1 -29 4130.72 4977.12 877.11 o
4189 1 -1 3 29 4130.72 4977.12 877.11 o
4190 3 -1 3 29 4141.05 5048.34 575.64 o
4190 2 3 -1 -29 4141.05 5048.34 575.64 o
4190 1 1 -3 29 4141.05 5048.34 575.64 o
4191 3 -1 -3 29 4136.84 4905.91 845.54 o
4191 2 -3 -1 -29 4136.84 4905.91 845.54 o
4191 1 1 3 29 4136.84 4905.91 845.54 o
4192 3 1 3 29 4134.93 4882.17 790.11 o
4192 2 3 1 -29 4134.93 4882.17 790.11 o
4192 1 -1 -3 29 4134.93 4882.17 790.11 o
4193 3 -2 -3 29 26.17 -181.99 807.09 <
4193 1 2 3 29 26.17 -181.99 807.09 <
4194 3 2 3 29 27.25 458.94 807.06 <
4194 1 -2 -3 29 27.25 458.94 807.06 <
4195 3 -3 -3 29 1607.36 2270.96 806.65 o
4195 2 -3 -3 -29 1607.36 2270.96 806.65 o
4195 1 3 3 29 1607.36 2270.96 806.65 o
4196 3 3 3 29 1595.47 2215.57 806.69 o
4196 2 3 3 -29 1595.47 2215.57 806.69 o
4196 1 -3 -3 29 1595.47 2215.57 806.69 o
4197 3 -4 -3 29 86.83 -348.16 886.20 <
4197 1 4 3 29 86.83 -348.16 886.20 <
4198 3 4 3 29 88.59 1147.35 862.23 <
4198 1 -4 -3 29 88.59 1147.35 862.23 <
4199 3 -5 -3 29 317.30 -490.59 822.87 <
4199 2 -3 -5 -29 317.30 -490.59 822.87 <
4199 1 5 3 29 317.30 -490.59 822.87 <
4200 3 5 3 29 315.70 435.20 933.69 <
4200 2 3 5 -29 315.70 435.20 933.69 <
4200 1 -5 -3 29 315.70 435.20 933.69 <
4201 3 -6 -3 29 32.38 1084.05 838.51 <
4201 1 6 3 29 32.38 1084.05 838.51 <
4202 3 6 3 29 32.86 965.36 822.73 <
4202 1 -6 -3 29 32.86 965.36 822.73 <
4203 3 -7 -3 29 100.15 625.11 854.50 <
4203 2 -3 -7 -29 100.15 625.11 854.50 <
4203 1 7 3 29 100.15 625.11 854.50 <
4204 3 7 3 29 99.75 451.03 941.59 <
4204 2 3 7 -29 99.75 451.03 941.59 <
4204 1 -7 -3 29 99.75 451.03 941.59 <
4205 3 6 -5 29 72.27 443.11 886.19 <
4205 1 -6 5 29 72.27 443.11 886.19 <
4206 3 -6 5 29 72.94 902.05 545.73 <
4206 1 6 -5 29 72.94 902.05 545.73 <
4207 3 5 -5 29 164.49 -189.91 830.83 <
4207 2 -5 5 -29 164.49 -189.91 830.83 <
4207 1 -5 5 29 164.49 -189.91 830.83 <
4208 3 -5 5 29 165.16 411.46 498.46 <
4208 2 5 -5 -29 165.16 411.46 498.46 <
4208 1 5 -5 29 165.16 411.46 498.46 <
4209 3 4 -5 29 41.56 822.93 854.44 <
4209 1 -4 5 29 41.56 822.93 854.44 <
4210 3 -4 5 29 41.24 316.51 514.30 <
4210 1 4 -5 29 41.24 316.51 514.30 <
4211 3 3 -5 29 272.37 545.98 854.54 <
4211 2 -5 3 -29 272.37 545.98 854.54 <
4211 1 -3 5 29 272.37 545.98 854.54 <
4212 3 -3 5 29 273.13 387.73 530.13 <
4212 2 5 -3 -29 273.13 387.73 530.13 <
4212 1 3 -5 29 273.13 387.73 530.13 <
4213 3 2 -5 29 17.60 23.74 909.97 <
4213 1 -2 5 29 17.60 23.74 909.97 <
4214 3 -2 5 29 17.68 79.13 553.89 <
4214 1 2 -5 29 17.68 79.13 553.89 <
4215 3 1 -5 29 409.68 1147.35 878.11 <
4215 2 -5 1 -29 409.68 1147.35 878.11 <
4215 1 -1 5 29 409.68 1147.35 878.11 <
4216 3 -1 5 29 413.63 189.91 609.31 <
4216 2 5 -1 -29 413.63 189.91 609.31 <
4216 1 1 -5 29 413.63 189.91 609.31 <
4217 3 -1 -5 29 413.01 704.23 894.09 <
4217 2 -5 -1 -29 413.01 704.23 894.09 <
4217 1 1 5 29 413.01 704.23 894.09 <
4218 3 1 5 29 410.30 2445.04 916.84 o
4218 2 5 1 -29 410.30 2445.04 916.84 o
4218 1 -1 -5 29 410.30 2445.04 916.84 o
4219 3 -2 -5 29 17.60 269.03 862.48 <
4219 1 2 5 29 17.60 269.03 862.48 <
4220 3 2 5 29 17.68 561.81 862.43 <
4220 1 -2 -5 29 17.68 561.81 862.43 <
4221 3 -3 -5 29 273.59 490.59 902.03 <
4221 2 -5 -3 -29 273.59 490.59 902.03 <
4221 1 3 5 29 273.59 490.59 902.03 <
4222 3 3 5 29 271.91 1891.15 901.41 o
4222 2 5 3 -29 271.91 1891.15 901.41 o
4222 1 -3 -5 29 271.91 1891.15 901.41 o
4223 3 -4 -5 29 41.56 387.73 870.37 <
4223 1 4 5 29 41.56 387.73 870.37 <
4224 3 4 5 29 41.24 205.73 854.57 <
4224 1 -4 -5 29 41.24 205.73 854.57 <
4225 3 -5 -5 29 165.64 1819.93 869.76 o
4225 2 -5 -5 -29 165.64 1819.93 869.76 o
4225 1 5 5 29 165.64 1819.93 869.76 o
4226 3 5 5 29 164.02 727.97 886.14 <
4226 2 5 5 -29 164.02 727.97 886.14 <
4226 1 -5 -5 29 164.02 727.97 886.14 <
4227 3 -6 -5 29 72.27 -712.15 901.95 <
4227 1 6 5 29 72.27 -712.15 901.95 <
4228 3 6 5 29 72.94 1044.48 893.93 <
4228 1 -6 -5 29 72.94 1044.48 893.93 <
4229 3 4 -7 29 36.75 775.45 870.28 <
4229 1 -4 7 29 36.75 775.45 870.28 <
4230 3 -4 7 29 36.92 324.42 561.77 <
4230 1 4 -7 29 36.92 324.42 561.77 <
4231 3 3 -7 29 71.13 633.02 838.67 <
4231 2 -7 3 -29 71.13 633.02 838.67 <
4231 1 -3 7 29 71.13 633.02 838.67 <
4232 3 -3 7 29 70.75 894.14 601.14 <
4232 2 7 -3 -29 70.75 894.14 601.14 <
4232 1 3 -7 29 70.75 894.14 601.14 <
4233 3 2 -7 29 13.36 1139.44 822.65 <
4233 1 -2 7 29 13.36 1139.44 822.65 <
4234 3 -2 7 29 13.22 387.73 632.98 <
4234 1 2 -7 29 13.22 387.73 632.98 <
4235 3 1 -7 29 82.06 878.32 846.51 <
4235 2 -7 1 -29 82.06 878.32 846.51 <
4235 1 -1 7 29 82.06 878.32 846.51 <
4236 3 -1 7 29 81.45 371.90 743.77 <
4236 2 7 -1 -29 81.45 371.90 743.77 <
4236 1 1 -7 29 81.45 371.90 743.77 <
4237 3 -1 -7 29 81.41 1748.72 838.12 o
4237 2 -7 -1 -29 81.41 1748.72 838.12 o
4237 1 1 7 29 81.41 1748.72 838.12 o
4238 3 1 7 29 82.09 -902.05 846.49 <
4238 2 7 1 -29 82.09 -902.05 846.49 <
4238 1 -1 -7 29 82.09 -902.05 846.49 <
4239 3 -2 -7 29 13.36 2634.95 900.69 o
4239 1 2 7 29 13.36 2634.95 900.69 o
4240 3 2 7 29 13.22 830.84 806.95 <
4240 1 -2 -7 29 13.22 830.84 806.95 <
4241 3 -3 -7 29 70.95 403.55 902.03 <
4241 2 -7 -3 -29 70.95 403.55 902.03 <
4241 1 3 7 29 70.95 403.55 902.03 <
4242 3 3 7 29 70.93 -94.95 909.97 <
4242 2 7 3 -29 70.93 -94.95 909.97 <
4242 1 -3 -7 29 70.93 -94.95 909.97 <
4243 3 -4 -7 29 36.75 1994.01 909.20 o
4243 1 4 7 29 36.75 1994.01 909.20 o
4244 3 4 7 29 36.92 -174.08 799.18 <
4244 1 -4 -7 29 36.92 -174.08 799.18 <
4245 3 0 0 30 5330.63 5887.09 647.54 o
4245 2 0 0 -30 5330.63 5887.09 647.54 o
4245 1 0 0 30 5330.63 5887.09 647.54 o
4246 3 -1 0 30 323.78 466.85 609.26 <
4246 1 1 0 30 323.78 466.85 609.26 <
4247 3 1 0 30 323.79 63.30 601.39 <
4247 1 -1 0 30 323.79 63.30 601.39 <
4248 3 -2 0 30 1105.12 1788.28 585.06 o
4248 2 0 -2 -30 1105.12 1788.28 585.06 o
4248 1 2 0 30 1105.12 1788.28 585.06 o
4249 3 2 0 30 1109.38 2358.00 600.29 o
4249 2 0 2 -30 1109.38 2358.00 600.29 o
4249 1 -2 0 30 1109.38 2358.00 600.29 o
4250 3 -3 0 30 3803.86 1717.07 690.36 o
4250 1 3 0 30 3803.86 1717.07 690.36 o
4251 3 3 0 30 3803.86 2199.75 682.21 o
4251 1 -3 0 30 3803.86 2199.75 682.21 o
4252 3 -4 0 30 3541.07 3418.31 680.66 o
4252 2 0 -4 -30 3541.07 3418.31 680.66 o
4252 1 4 0 30 3541.07 3418.31 680.66 o
4253 3 4 0 30 3527.73 4344.10 639.55 o
4253 2 0 4 -30 3527.73 4344.10 639.55 o
4253 1 -4 0 30 3527.73 4344.10 639.55 o
4254 3 -5 0 30 1.97 -205.73 688.40 <
4254 1 5 0 30 1.97 -205.73 688.40 <
4255 3 5 0 30 1.97 -221.56 617.18 <
4255 1 -5 0 30 1.97 -221.56 617.18 <
4256 3 -6 0 30 635.85 1519.25 687.99 o
4256 2 0 -6 -30 635.85 1519.25 687.99 o
4256 1 6 0 30 635.85 1519.25 687.99 o
4257 3 6 0 30 641.53 791.28 894.11 <
4257 2 0 6 -30 641.53 791.28 894.11 <
4257 1 -6 0 30 641.53 791.28 894.11 <
4258 3 -7 0 30 214.98 -443.11 561.74 <
4258 1 7 0 30 214.98 -443.11 561.74 <
4259 3 7 0 30 214.98 696.32 846.58 <
4259 1 -7 0 30 214.98 696.32 846.58 <
4260 3 7 -2 30 129.06 617.20 941.55 <
4260 1 -7 2 30 129.06 617.20 941.55 <
4261 3 -7 2 30 129.05 894.14 553.66 <
4261 1 7 -2 30 129.05 894.14 553.66 <
4262 3 6 -2 30 1289.52 1859.50 775.12 o
4262 2 -2 6 -30 1289.52 1859.50 775.12 o
4262 1 -6 2 30 1289.52 1859.50 775.12 o
4263 3 -6 2 30 1293.91 1954.45 505.81 o
4263 2 2 -6 -30 1293.91 1954.45 505.81 o
4263 1 6 -2 30 1293.91 1954.45 505.81 o
4264 3 5 -2 30 929.78 688.41 775.51 <
4264 1 -5 2 30 929.78 688.41 775.51 <
4265 3 -5 2 30 931.78 981.18 498.48 <
4265 1 5 -2 30 931.78 981.18 498.48 <
4266 3 4 -2 30 950.61 1052.40 807.07 <
4266 2 -2 4 -30 950.61 1052.40 807.07 <
4266 1 -4 2 30 950.61 1052.40 807.07 <
4267 3 -4 2 30 945.68 1115.70 514.24 o
4267 2 2 -4 -30 945.68 1115.70 514.24 o
4267 1 4 -2 30 945.68 1115.70 514.24 o
4268 3 3 -2 30 40.22 878.32 775.28 <
4268 1 -3 2 30 40.22 878.32 775.28 <
4269 3 -3 2 30 40.51 569.72 498.39 <
4269 1 3 -2 30 40.51 569.72 498.39 <
4270 3 2 -2 30 4488.77 3877.25 958.14 o
4270 2 -2 2 -30 4488.77 3877.25 958.14 o
4270 1 -2 2 30 4488.77 3877.25 958.14 o
4271 3 -2 2 30 4493.79 3845.60 594.64 o
4271 2 2 -2 -30 4493.79 3845.60 594.64 o
4271 1 2 -2 30 4493.79 3845.60 594.64 o
4272 3 1 -2 30 1686.14 1598.38 664.73 o
4272 1 -1 2 30 1686.14 1598.38 664.73 o
4273 3 -1 2 30 1683.69 822.93 712.51 <
4273 1 1 -2 30 1683.69 822.93 712.51 <
4274 3 0 -2 30 1099.03 1186.91 640.89 <
4274 2 -2 0 -30 1099.03 1186.91 640.89 <
4274 1 0 2 30 1099.03 1186.91 640.89 <
4275 3 0 2 30 1100.79 783.36 672.70 <
4275 2 2 0 -30 1100.79 783.36 672.70 <
4275 1 0 -2 30 1100.79 783.36 672.70 <
4276 3 -1 -2 30 1686.15 1408.47 688.57 o
4276 1 1 2 30 1686.15 1408.47 688.57 o
4277 3 1 2 30 1683.68 284.86 704.63 <
4277 1 -1 -2 30 1683.68 284.86 704.63 <
4278 3 -2 -2 30 4497.32 4684.35 790.98 o
4278 2 -2 -2 -30 4497.32 4684.35 790.98 o
4278 1 2 2 30 4497.32 4684.35 790.98 o
4279 3 2 2 30 4485.23 4272.89 752.04 o
4279 2 2 2 -30 4485.23 4272.89 752.04 o
4279 1 -2 -2 30 4485.23 4272.89 752.04 o
4280 3 -3 -2 30 40.22 -134.52 775.45 <
4280 1 3 2 30 40.22 -134.52 775.45 <
4281 3 3 2 30 40.52 142.43 720.06 <
4281 1 -3 -2 30 40.52 142.43 720.06 <
4282 3 -4 -2 30 944.13 759.63 775.50 <
4282 2 -2 -4 -30 944.13 759.63 775.50 <
4282 1 4 2 30 944.13 759.63 775.50 <
4283 3 4 2 30 952.16 1376.82 727.78 <
4283 2 2 4 -30 952.16 1376.82 727.78 <
4283 1 -4 -2 30 952.16 1376.82 727.78 <
4284 3 -5 -2 30 929.78 720.06 830.89 <
4284 1 5 2 30 929.78 720.06 830.89 <
4285 3 5 2 30 931.78 1883.24 933.28 o
4285 1 -5 -2 30 931.78 1883.24 933.28 o
4286 3 -6 -2 30 1294.56 1645.85 711.95 o
4286 2 -2 -6 -30 1294.56 1645.85 711.95 o
4286 1 6 2 30 1294.56 1645.85 711.95 o
4287 3 6 2 30 1288.86 1004.92 933.79 <
4287 2 2 6 -30 1288.86 1004.92 933.79 <
4287 1 -6 -2 30 1288.86 1004.92 933.79 <
4288 3 -7 -2 30 129.06 617.20 696.24 <
4288 1 7 2 30 129.06 617.20 696.24 <
4289 3 7 2 30 129.05 189.91 878.31 <
4289 1 -7 -2 30 129.05 189.91 878.31 <
4290 3 6 -4 30 362.36 166.17 822.94 <
4290 2 -4 6 -30 362.36 166.17 822.94 <
4290 1 -6 4 30 362.36 166.17 822.94 <
4291 3 -6 4 30 360.35 451.03 545.96 <
4291 2 4 -6 -30 360.35 451.03 545.96 <
4291 1 6 -4 30 360.35 451.03 545.96 <
4292 3 5 -4 30 221.75 2081.05 917.09 o
4292 1 -5 4 30 221.75 2081.05 917.09 o
4293 3 -5 4 30 221.13 640.93 545.88 <
4293 1 5 -4 30 221.13 640.93 545.88 <
4294 3 4 -4 30 1761.88 2547.91 774.83 o
4294 2 -4 4 -30 1761.88 2547.91 774.83 o
4294 1 -4 4 30 1761.88 2547.91 774.83 o
4295 3 -4 4 30 1765.32 1859.50 474.67 o
4295 2 4 -4 -30 1765.32 1859.50 474.67 o
4295 1 4 -4 30 1765.32 1859.50 474.67 o
4296 3 3 -4 30 468.17 332.34 759.64 <
4296 1 -3 4 30 468.17 332.34 759.64 <
4297 3 -3 4 30 468.79 949.53 498.30 <
4297 1 3 -4 30 468.79 949.53 498.30 <
4298 3 2 -4 30 979.31 7.91 902.15 <
4298 2 -4 2 -30 979.31 7.91 902.15 <
4298 1 -2 4 30 979.31 7.91 902.15 <
4299 3 -2 4 30 978.24 1495.51 553.56 o
4299 2 4 -2 -30 978.24 1495.51 553.56 o
4299 1 2 -4 30 978.24 1495.51 553.56 o
4300 3 1 -4 30 529.49 1131.52 814.83 <
4300 1 -1 4 30 529.49 1131.52 814.83 <
4301 3 -1 4 30 529.44 965.36 553.72 <
4301 1 1 -4 30 529.44 965.36 553.72 <
4302 3 0 -4 30 3717.70 5182.85 884.16 o
4302 2 -4 0 -30 3717.70 5182.85 884.16 o
4302 1 0 4 30 3717.70 5182.85 884.16 o
4303 3 0 4 30 3712.22 4162.11 703.55 o
4303 2 4 0 -30 3712.22 4162.11 703.55 o
4303 1 0 -4 30 3712.22 4162.11 703.55 o
4304 3 -1 -4 30 529.49 23.74 791.31 <
4304 1 1 4 30 529.49 23.74 791.31 <
4305 3 1 4 30 529.44 -443.11 791.24 <
4305 1 -1 -4 30 529.44 -443.11 791.24 <
4306 3 -2 -4 30 975.56 957.44 925.80 <
4306 2 -4 -2 -30 975.56 957.44 925.80 <
4306 1 2 4 30 975.56 957.44 925.80 <
4307 3 2 4 30 981.99 2239.31 893.46 o
4307 2 4 2 -30 981.99 2239.31 893.46 o
4307 1 -2 -4 30 981.99 2239.31 893.46 o
4308 3 -3 -4 30 468.17 1321.43 885.96 <
4308 1 3 4 30 468.17 1321.43 885.96 <
4309 3 3 4 30 468.79 371.90 878.33 <
4309 1 -3 -4 30 468.79 371.90 878.33 <
4310 3 -4 -4 30 1767.73 2603.30 941.07 o
4310 2 -4 -4 -30 1767.73 2603.30 941.07 o
4310 1 4 4 30 1767.73 2603.30 941.07 o
4311 3 4 4 30 1759.48 878.32 926.09 <
4311 2 4 4 -30 1759.48 878.32 926.09 <
4311 1 -4 -4 30 1759.48 878.32 926.09 <
4312 3 -5 -4 30 221.75 -1060.31 822.66 <
4312 1 5 4 30 221.75 -1060.31 822.66 <
4313 3 5 4 30 221.13 174.08 743.80 <
4313 1 -5 -4 30 221.13 174.08 743.80 <
4314 3 -6 -4 30 359.22 1250.22 901.80 <
4314 2 -4 -6 -30 359.22 1250.22 901.80 <
4314 1 6 4 30 359.22 1250.22 901.80 <
4315 3 6 4 30 363.49 284.86 894.15 <
4315 2 4 6 -30 363.49 284.86 894.15 <
4315 1 -6 -4 30 363.49 284.86 894.15 <
4316 3 5 -6 30 40.81 -237.38 838.74 <
4316 1 -5 6 30 40.81 -237.38 838.74 <
4317 3 -5 6 30 41.61 949.53 545.69 <
4317 1 5 -6 30 41.61 949.53 545.69 <
4318 3 4 -6 30 377.70 1455.95 877.96 <
4318 2 -6 4 -30 377.70 1455.95 877.96 <
4318 1 -4 6 30 377.70 1455.95 877.96 <
4319 3 -4 6 30 376.26 783.36 530.02 <
4319 2 6 -4 -30 376.26 783.36 530.02 <
4319 1 4 -6 30 376.26 783.36 530.02 <
4320 3 3 -6 30 268.35 1052.40 878.13 <
4320 1 -3 6 30 268.35 1052.40 878.13 <
4321 3 -3 6 30 267.48 609.28 545.90 <
4321 1 3 -6 30 267.48 609.28 545.90 <
4322 3 2 -6 30 1453.40 1962.36 775.14 o
4322 2 -6 2 -30 1453.40 1962.36 775.14 o
4322 1 -2 6 30 1453.40 1962.36 775.14 o
4323 3 -2 6 30 1452.89 1717.07 632.84 o
4323 2 6 -2 -30 1452.89 1717.07 632.84 o
4323 1 2 -6 30 1452.89 1717.07 632.84 o
4324 3 1 -6 30 183.40 -672.58 909.87 <
4324 1 -1 6 30 183.40 -672.58 909.87 <
4325 3 -1 6 30 184.33 -292.77 704.21 <
4325 1 1 -6 30 184.33 -292.77 704.21 <
4326 3 0 -6 30 699.94 1281.87 909.78 <
4326 2 -6 0 -30 699.94 1281.87 909.78 <
4326 1 0 6 30 699.94 1281.87 909.78 <
4327 3 0 6 30 702.28 957.44 973.21 <
4327 2 6 0 -30 702.28 957.44 973.21 <
4327 1 0 -6 30 702.28 957.44 973.21 <
4328 3 -1 -6 30 183.40 1131.52 854.34 <
4328 1 1 6 30 183.40 1131.52 854.34 <
4329 3 1 6 30 184.33 1289.78 862.17 <
4329 1 -1 -6 30 184.33 1289.78 862.17 <
4330 3 -2 -6 30 1454.97 2943.54 869.29 o
4330 2 -6 -2 -30 1454.97 2943.54 869.29 o
4330 1 2 6 30 1454.97 2943.54 869.29 o
4331 3 2 6 30 1451.31 1748.72 878.17 <
4331 2 6 2 -30 1451.31 1748.72 878.17 <
4331 1 -2 -6 30 1451.31 1748.72 878.17 <
4332 3 -3 -6 30 268.35 553.89 743.75 <
4332 1 3 6 30 268.35 553.89 743.75 <
4333 3 3 6 30 267.48 15.83 846.67 <
4333 1 -3 -6 30 267.48 15.83 846.67 <
4334 3 -4 -6 30 374.97 664.67 902.01 <
4334 2 -6 -4 -30 374.97 664.67 902.01 <
4334 1 4 6 30 374.97 664.67 902.01 <
4335 3 4 6 30 378.99 1266.04 893.89 <
4335 2 6 4 -30 378.99 1266.04 893.89 <
4335 1 -4 -6 30 378.99 1266.04 893.89 <
4336 3 -5 -6 30 40.81 2350.09 916.82 o
4336 1 5 6 30 40.81 2350.09 916.82 o
4337 3 5 6 30 41.61 2144.36 901.16 o
4337 1 -5 -6 30 41.61 2144.36 901.16 o
4338 3 7 -1 31 1109.96 1020.75 941.64 <
4338 2 -1 7 -31 1109.96 1020.75 941.64 <
4338 1 -7 1 31 1109.96 1020.75 941.64 <
4339 3 -7 1 31 1112.50 2563.73 576.24 o
4339 2 1 -7 -31 1112.50 2563.73 576.24 o
4339 1 7 -1 31 1112.50 2563.73 576.24 o
4340 3 6 -1 31 26.46 94.95 886.23 <
4340 1 -6 1 31 26.46 94.95 886.23 <
4341 3 -6 1 31 26.67 94.95 545.98 <
4341 1 6 -1 31 26.67 94.95 545.98 <
4342 3 5 -1 31 1831.97 2152.27 901.86 o
4342 2 -1 5 -31 1831.97 2152.27 901.86 o
4342 1 -5 1 31 1831.97 2152.27 901.86 o
4343 3 -5 1 31 1840.91 1962.36 625.01 o
4343 2 1 -5 -31 1840.91 1962.36 625.01 o
4343 1 5 -1 31 1840.91 1962.36 625.01 o
4344 3 4 -1 31 12.88 94.95 561.80 <
4344 1 -4 1 31 12.88 94.95 561.80 <
4345 3 -4 1 31 12.76 593.46 656.66 <
4345 1 4 -1 31 12.76 593.46 656.66 <
4346 3 3 -1 31 1156.39 2263.05 616.29 o
4346 2 -1 3 -31 1156.39 2263.05 616.29 o
4346 1 -3 1 31 1156.39 2263.05 616.29 o
4347 3 -3 1 31 1167.86 1503.42 664.48 o
4347 2 1 -3 -31 1167.86 1503.42 664.48 o
4347 1 3 -1 31 1167.86 1503.42 664.48 o
4348 3 2 -1 31 3.17 -530.16 545.89 <
4348 1 -2 1 31 3.17 -530.16 545.89 <
4349 3 -2 1 31 3.03 -71.21 561.80 <
4349 1 2 -1 31 3.03 -71.21 561.80 <
4350 3 1 -1 31 88.56 1036.57 601.07 <
4350 2 -1 1 -31 88.56 1036.57 601.07 <
4350 1 -1 1 31 88.56 1036.57 601.07 <
4351 3 -1 1 31 90.06 648.85 625.00 <
4351 2 1 -1 -31 90.06 648.85 625.00 <
4351 1 1 -1 31 90.06 648.85 625.00 <
4352 3 -1 -1 31 91.12 538.07 609.21 <
4352 2 -1 -1 -31 91.12 538.07 609.21 <
4352 1 1 1 31 91.12 538.07 609.21 <
4353 3 1 1 31 87.51 118.69 664.67 <
4353 2 1 1 -31 87.51 118.69 664.67 <
4353 1 -1 -1 31 87.51 118.69 664.67 <
4354 3 -2 -1 31 3.17 -87.04 696.32 <
4354 1 2 1 31 3.17 -87.04 696.32 <
4355 3 2 1 31 3.03 -340.25 648.81 <
4355 1 -2 -1 31 3.03 -340.25 648.81 <
4356 3 -3 -1 31 1166.12 1186.91 664.66 <
4356 2 -1 -3 -31 1166.12 1186.91 664.66 <
4356 1 3 1 31 1166.12 1186.91 664.66 <
4357 3 3 1 31 1158.14 909.97 617.30 <
4357 2 1 3 -31 1158.14 909.97 617.30 <
4357 1 -3 -1 31 1158.14 909.97 617.30 <
4358 3 -4 -1 31 12.88 -308.60 696.30 <
4358 1 4 1 31 12.88 -308.60 696.30 <
4359 3 4 1 31 12.76 395.64 656.72 <
4359 1 -4 -1 31 12.76 395.64 656.72 <
4360 3 -5 -1 31 1839.97 2041.49 767.40 o
4360 2 -1 -5 -31 1839.97 2041.49 767.40 o
4360 1 5 1 31 1839.97 2041.49 767.40 o
4361 3 5 1 31 1832.92 2136.44 688.17 o
4361 2 1 5 -31 1832.92 2136.44 688.17 o
4361 1 -5 -1 31 1832.92 2136.44 688.17 o
4362 3 -6 -1 31 26.46 672.58 814.92 <
4362 1 6 1 31 26.46 672.58 814.92 <
4363 3 6 1 31 26.67 -110.78 720.06 <
4363 1 -6 -1 31 26.67 -110.78 720.06 <
4364 3 -7 -1 31 1111.60 1740.81 743.45 o
4364 2 -1 -7 -31 1111.60 1740.81 743.45 o
4364 1 7 1 31 1111.60 1740.81 743.45 o
4365 3 7 1 31 1110.85 2255.14 711.34 o
4365 2 1 7 -31 1110.85 2255.14 711.34 o
4365 1 -7 -1 31 1110.85 2255.14 711.34 o
4366 3 6 -3 31 51.24 197.82 799.18 <
4366 1 -6 3 31 51.24 197.82 799.18 <
4367 3 -6 3 31 50.96 1511.34 545.25 o
4367 1 6 -3 31 50.96 1511.34 545.25 o
4368 3 5 -3 31 1456.69 2041.49 798.83 o
4368 2 -3 5 -31 1456.69 2041.49 798.83 o
4368 1 -5 3 31 1456.69 2041.49 798.83 o
4369 3 -5 3 31 1459.60 1906.97 537.68 o
4369 2 3 -5 -31 1459.60 1906.97 537.68 o
4369 1 5 -3 31 1459.60 1906.97 537.68 o
4370 3 4 -3 31 19.74 506.42 775.39 <
4370 1 -4 3 31 19.74 506.42 775.39 <
4371 3 -4 3 31 19.99 284.86 538.04 <
4371 1 4 -3 31 19.99 284.86 538.04 <
4372 3 3 -3 31 1490.02 -110.78 902.25 <
4372 2 -3 3 -31 1490.02 -110.78 902.25 <
4372 1 -3 3 31 1490.02 -110.78 902.25 <
4373 3 -3 3 31 1489.53 1748.72 553.68 o
4373 2 3 -3 -31 1489.53 1748.72 553.68 o
4373 1 3 -3 31 1489.53 1748.72 553.68 o
4374 3 2 -3 31 9.10 427.29 838.71 <
4374 1 -2 3 31 9.10 427.29 838.71 <
4375 3 -2 3 31 9.18 197.82 522.23 <
4375 1 2 -3 31 9.18 197.82 522.23 <
4376 3 1 -3 31 1212.03 1084.05 862.53 <
4376 2 -3 1 -31 1212.03 1084.05 862.53 <
4376 1 -1 3 31 1212.03 1084.05 862.53 <
4377 3 -1 3 31 1203.79 1424.30 593.32 o
4377 2 3 -1 -31 1203.79 1424.30 593.32 o
4377 1 1 -3 31 1203.79 1424.30 593.32 o
4378 3 -1 -3 31 1207.80 332.34 846.84 <
4378 2 -3 -1 -31 1207.80 332.34 846.84 <
4378 1 1 3 31 1207.80 332.34 846.84 <
4379 3 1 3 31 1208.03 1519.25 704.07 o
4379 2 3 1 -31 1208.03 1519.25 704.07 o
4379 1 -1 -3 31 1208.03 1519.25 704.07 o
4380 3 -2 -3 31 9.10 -205.73 799.18 <
4380 1 2 3 31 9.10 -205.73 799.18 <
4381 3 2 3 31 9.18 -356.07 807.07 <
4381 1 -2 -3 31 9.18 -356.07 807.07 <
4382 3 -3 -3 31 1489.16 1827.85 893.97 o
4382 2 -3 -3 -31 1489.16 1827.85 893.97 o
4382 1 3 3 31 1489.16 1827.85 893.97 o
4383 3 3 3 31 1490.37 1226.48 870.51 <
4383 2 3 3 -31 1490.37 1226.48 870.51 <
4383 1 -3 -3 31 1490.37 1226.48 870.51 <
4384 3 -4 -3 31 19.74 514.33 933.66 <
4384 1 4 3 31 19.74 514.33 933.66 <
4385 3 4 3 31 19.99 791.28 957.33 <
4385 1 -4 -3 31 19.99 791.28 957.33 <
4386 3 -5 -3 31 1456.77 1756.63 933.56 <
4386 2 -3 -5 -31 1456.77 1756.63 933.56 <
4386 1 5 3 31 1456.77 1756.63 933.56 <
4387 3 5 3 31 1459.52 2302.61 925.30 o
4387 2 3 5 -31 1459.52 2302.61 925.30 o
4387 1 -5 -3 31 1459.52 2302.61 925.30 o
4388 3 -6 -3 31 51.24 -1012.83 838.53 <
4388 1 6 3 31 51.24 -1012.83 838.53 <
4389 3 6 3 31 50.96 -237.38 838.74 <
4389 1 -6 -3 31 50.96 -237.38 838.74 <
4390 3 5 -5 31 723.72 2168.09 877.58 o
4390 2 -5 5 -31 723.72 2168.09 877.58 o
4390 1 -5 5 31 723.72 2168.09 877.58 o
4391 3 -5 5 31 724.12 593.46 530.20 <
4391 2 5 -5 -31 724.12 593.46 530.20 <
4391 1 5 -5 31 724.12 593.46 530.20 <
4392 3 4 -5 31 49.61 1582.55 869.90 <
4392 1 -4 5 31 49.61 1582.55 869.90 <
4393 3 -4 5 31 49.32 474.77 569.65 <
4393 1 4 -5 31 49.32 474.77 569.65 <
4394 3 3 -5 31 1638.45 2215.57 885.88 o
4394 2 -5 3 -31 1638.45 2215.57 885.88 o
4394 1 -3 5 31 1638.45 2215.57 885.88 o
4395 3 -3 5 31 1631.56 1028.66 546.34 <
4395 2 5 -3 -31 1631.56 1028.66 546.34 <
4395 1 3 -5 31 1631.56 1028.66 546.34 <
4396 3 2 -5 31 4.58 815.01 878.18 <
4396 1 -2 5 31 4.58 815.01 878.18 <
4397 3 -2 5 31 4.66 474.77 585.48 <
4397 1 2 -5 31 4.66 474.77 585.48 <
4398 3 1 -5 31 2210.74 1345.17 918.29 <
4398 2 -5 1 -31 2210.74 1345.17 918.29 <
4398 1 -1 5 31 2210.74 1345.17 918.29 <
4399 3 -1 5 31 2205.17 2136.44 656.82 o
4399 2 5 -1 -31 2205.17 2136.44 656.82 o
4399 1 1 -5 31 2205.17 2136.44 656.82 o
4400 3 -1 -5 31 2208.47 2785.29 925.36 o
4400 2 -5 -1 -31 2208.47 2785.29 925.36 o
4400 1 1 5 31 2208.47 2785.29 925.36 o
4401 3 1 5 31 2207.46 2445.04 941.46 o
4401 2 5 1 -31 2207.46 2445.04 941.46 o
4401 1 -1 -5 31 2207.46 2445.04 941.46 o
4402 3 -2 -5 31 4.58 -807.10 909.84 <
4402 1 2 5 31 4.58 -807.10 909.84 <
4403 3 2 5 31 4.66 1503.42 909.53 <
4403 1 -2 -5 31 4.66 1503.42 909.53 <
4404 3 -3 -5 31 1631.59 2033.58 846.42 o
4404 2 -5 -3 -31 1631.59 2033.58 846.42 o
4404 1 3 5 31 1631.59 2033.58 846.42 o
4405 3 3 5 31 1638.42 1978.19 854.38 o
4405 2 5 3 -31 1638.42 1978.19 854.38 o
4405 1 -3 -5 31 1638.42 1978.19 854.38 o
4406 3 -4 -5 31 49.61 332.34 838.73 <
4406 1 4 5 31 49.61 332.34 838.73 <
4407 3 4 5 31 49.32 -545.98 735.81 <
4407 1 -4 -5 31 49.32 -545.98 735.81 <
4408 3 -5 -5 31 724.40 1724.98 941.22 <
4408 2 -5 -5 -31 724.40 1724.98 941.22 <
4408 1 5 5 31 724.40 1724.98 941.22 <
4409 3 5 5 31 723.45 522.24 910.00 <
4409 2 5 5 -31 723.45 522.24 910.00 <
4409 1 -5 -5 31 723.45 522.24 910.00 <
4410 3 2 -7 31 11.65 1107.79 846.41 <
4410 1 -2 7 31 11.65 1107.79 846.41 <
4411 3 -2 7 31 11.64 47.48 680.50 <
4411 1 2 -7 31 11.64 47.48 680.50 <
4412 3 1 -7 31 1465.76 3497.44 757.61 o
4412 2 -7 1 -31 1465.76 3497.44 757.61 o
4412 1 -1 7 31 1465.76 3497.44 757.61 o
4413 3 -1 7 31 1462.93 1630.03 862.41 <
4413 2 7 -1 -31 1462.93 1630.03 862.41 <
4413 1 1 -7 31 1462.93 1630.03 862.41 <
4414 3 -1 -7 31 1463.60 2603.30 909.22 o
4414 2 -7 -1 -31 1463.60 2603.30 909.22 o
4414 1 1 7 31 1463.60 2603.30 909.22 o
4415 3 1 7 31 1465.08 2848.59 916.92 o
4415 2 7 1 -31 1465.08 2848.59 916.92 o
4415 1 -1 -7 31 1465.08 2848.59 916.92 o
4416 3 -2 -7 31 11.65 1273.95 957.14 <
4416 1 2 7 31 11.65 1273.95 957.14 <
4417 3 2 7 31 11.64 878.32 1004.78 <
4417 1 -2 -7 31 11.64 878.32 1004.78 <
4418 3 0 0 32 1202.96 1978.19 592.86 o
4418 2 0 0 -32 1202.96 1978.19 592.86 o
4418 1 0 0 32 1202.96 1978.19 592.86 o
4419 3 -1 0 32 1395.75 2144.36 679.94 o
4419 1 1 0 32 1395.75 2144.36 679.94 o
4420 3 1 0 32 1395.74 1353.08 648.87 o
4420 1 -1 0 32 1395.74 1353.08 648.87 o
4421 3 -2 0 32 1173.48 2793.20 718.71 o
4421 2 0 -2 -32 1173.48 2793.20 718.71 o
4421 1 2 0 32 1173.48 2793.20 718.71 o
4422 3 2 0 32 1178.65 2460.87 631.92 o
4422 2 0 2 -32 1178.65 2460.87 631.92 o
4422 1 -2 0 32 1178.65 2460.87 631.92 o
4423 3 -3 0 32 419.42 379.81 672.59 <
4423 1 3 0 32 419.42 379.81 672.59 <
4424 3 3 0 32 419.41 340.25 633.03 <
4424 1 -3 0 32 419.41 340.25 633.03 <
4425 3 -4 0 32 2222.38 2270.96 664.63 o
4425 2 0 -4 -32 2222.38 2270.96 664.63 o
4425 1 4 0 32 2222.38 2270.96 664.63 o
4426 3 4 0 32 2225.71 1519.25 625.64 o
4426 2 0 4 -32 2225.71 1519.25 625.64 o
4426 1 -4 0 32 2225.71 1519.25 625.64 o
4427 3 -5 0 32 1571.94 1542.99 688.43 o
4427 1 5 0 32 1571.94 1542.99 688.43 o
4428 3 5 0 32 1571.94 1622.11 601.33 o
4428 1 -5 0 32 1571.94 1622.11 601.33 o
4429 3 -6 0 32 1073.77 1970.28 711.59 o
4429 2 0 -6 -32 1073.77 1970.28 711.59 o
4429 1 6 0 32 1073.77 1970.28 711.59 o
4430 3 6 0 32 1077.99 2397.56 917.13 o
4430 2 0 6 -32 1077.99 2397.56 917.13 o
4430 1 -6 0 32 1077.99 2397.56 917.13 o
4431 3 -7 0 32 26.69 181.99 585.53 <
4431 1 7 0 32 26.69 181.99 585.53 <
4432 3 7 0 32 26.69 498.50 1036.53 <
4432 1 -7 0 32 26.69 498.50 1036.53 <
4433 3 7 -2 32 263.18 2658.69 932.43 o
4433 1 -7 2 32 263.18 2658.69 932.43 o
4434 3 -7 2 32 264.23 933.71 561.58 <
4434 1 7 -2 32 264.23 933.71 561.58 <
4435 3 6 -2 32 1048.30 783.36 799.27 <
4435 2 -2 6 -32 1048.30 783.36 799.27 <
4435 1 -6 2 32 1048.30 783.36 799.27 <
4436 3 -6 2 32 1050.31 1867.41 553.27 o
4436 2 2 -6 -32 1050.31 1867.41 553.27 o
4436 1 6 -2 32 1050.31 1867.41 553.27 o
4437 3 5 -2 32 112.74 1345.17 901.71 <
4437 1 -5 2 32 112.74 1345.17 901.71 <
4438 3 -5 2 32 113.29 577.63 514.23 <
4438 1 5 -2 32 113.29 577.63 514.23 <
4439 3 4 -2 32 1544.30 1772.46 917.77 <
4439 2 -2 4 -32 1544.30 1772.46 917.77 <
4439 1 -4 2 32 1544.30 1772.46 917.77 <
4440 3 -4 2 32 1541.69 2247.22 576.97 o
4440 2 2 -4 -32 1541.69 2247.22 576.97 o
4440 1 4 -2 32 1541.69 2247.22 576.97 o
4441 3 3 -2 32 1643.98 2714.07 925.07 o
4441 1 -3 2 32 1643.98 2714.07 925.07 o
4442 3 -3 2 32 1642.27 1392.64 561.98 o
4442 1 3 -2 32 1642.27 1392.64 561.98 o
4443 3 2 -2 32 2151.12 3070.15 822.10 o
4443 2 -2 2 -32 2151.12 3070.15 822.10 o
4443 1 -2 2 32 2151.12 3070.15 822.10 o
4444 3 -2 2 32 2150.30 2168.09 696.31 o
4444 2 2 -2 -32 2150.30 2168.09 696.31 o
4444 1 2 -2 32 2150.30 2168.09 696.31 o
4445 3 1 -2 32 45.65 443.11 664.62 <
4445 1 -1 2 32 45.65 443.11 664.62 <
4446 3 -1 2 32 45.91 569.72 648.76 <
4446 1 1 -2 32 45.91 569.72 648.76 <
4447 3 0 -2 32 1224.55 3054.32 710.47 o
4447 2 -2 0 -32 1224.55 3054.32 710.47 o
4447 1 0 2 32 1224.55 3054.32 710.47 o
4448 3 0 2 32 1226.68 2967.28 718.52 o
4448 2 2 0 -32 1226.68 2967.28 718.52 o
4448 1 0 -2 32 1226.68 2967.28 718.52 o
4449 3 -1 -2 32 45.65 466.85 672.53 <
4449 1 1 2 32 45.65 466.85 672.53 <
4450 3 1 2 32 45.91 79.13 672.58 <
4450 1 -1 -2 32 45.91 79.13 672.58 <
4451 3 -2 -2 32 2149.73 2555.82 727.61 o
4451 2 -2 -2 -32 2149.73 2555.82 727.61 o
4451 1 2 2 32 2149.73 2555.82 727.61 o
4452 3 2 2 32 2151.69 2452.95 688.14 o
4452 2 2 2 -32 2151.69 2452.95 688.14 o
4452 1 -2 -2 32 2151.69 2452.95 688.14 o
4453 3 -3 -2 32 1643.98 2104.79 767.22 o
4453 1 3 2 32 1643.98 2104.79 767.22 o
4454 3 3 2 32 1642.27 1503.42 728.05 o
4454 1 -3 -2 32 1642.27 1503.42 728.05 o
4455 3 -4 -2 32 1539.53 1780.37 854.45 o
4455 2 -2 -4 -32 1539.53 1780.37 854.45 o
4455 1 4 2 32 1539.53 1780.37 854.45 o
4456 3 4 2 32 1546.46 2437.13 814.39 o
4456 2 2 4 -32 1546.46 2437.13 814.39 o
4456 1 -4 -2 32 1546.46 2437.13 814.39 o
4457 3 -5 -2 32 112.74 118.69 799.19 <
4457 1 5 2 32 112.74 118.69 799.19 <
4458 3 5 2 32 113.29 1448.03 901.66 <
4458 1 -5 -2 32 113.29 1448.03 901.66 <
4459 3 -6 -2 32 1049.02 1614.20 759.34 o
4459 2 -2 -6 -32 1049.02 1614.20 759.34 o
4459 1 6 2 32 1049.02 1614.20 759.34 o
4460 3 6 2 32 1049.60 1653.77 901.79 <
4460 2 2 6 -32 1049.60 1653.77 901.79 <
4460 1 -6 -2 32 1049.60 1653.77 901.79 <
4461 3 -7 -2 32 263.18 1028.66 735.67 <
4461 1 7 2 32 263.18 1028.66 735.67 <
4462 3 7 2 32 264.23 -577.63 941.55 <
4462 1 -7 -2 32 264.23 -577.63 941.55 <
4463 3 6 -4 32 499.72 870.40 862.41 <
4463 2 -4 6 -32 499.72 870.40 862.41 <
4463 1 -6 4 32 499.72 870.40 862.41 <
4464 3 -6 4 32 499.54 1899.06 537.07 o
4464 2 4 -6 -32 499.54 1899.06 537.07 o
4464 1 6 -4 32 499.54 1899.06 537.07 o
4465 3 5 -4 32 335.19 3014.76 932.08 o
4465 1 -5 4 32 335.19 3014.76 932.08 o
4466 3 -5 4 32 336.04 767.54 537.93 <
4466 1 5 -4 32 336.04 767.54 537.93 <
4467 3 4 -4 32 1331.24 2199.75 822.39 o
4467 2 -4 4 -32 1331.24 2199.75 822.39 o
4467 1 -4 4 32 1331.24 2199.75 822.39 o
4468 3 -4 4 32 1331.02 1416.38 545.92 o
4468 2 4 -4 -32 1331.02 1416.38 545.92 o
4468 1 4 -4 32 1331.02 1416.38 545.92 o
4469 3 3 -4 32 3.56 -577.63 814.94 <
4469 1 -3 4 32 3.56 -577.63 814.94 <
4470 3 -3 4 32 3.56 490.59 522.16 <
4470 1 3 -4 32 3.56 490.59 522.16 <
4471 3 2 -4 32 1675.86 2785.29 806.22 o
4471 2 -4 2 -32 1675.86 2785.29 806.22 o
4471 1 -2 4 32 1675.86 2785.29 806.22 o
4472 3 -2 4 32 1672.60 2745.73 552.66 o
4472 2 4 -2 -32 1672.60 2745.73 552.66 o
4472 1 2 -4 32 1672.60 2745.73 552.66 o
4473 3 1 -4 32 312.93 569.72 775.41 <
4473 1 -1 4 32 312.93 569.72 775.41 <
4474 3 -1 4 32 312.94 284.86 585.55 <
4474 1 1 -4 32 312.94 284.86 585.55 <
4475 3 0 -4 32 2501.11 1606.29 815.57 <
4475 2 -4 0 -32 2501.11 1606.29 815.57 <
4475 1 0 4 32 2501.11 1606.29 815.57 <
4476 3 0 4 32 2502.47 2017.75 712.54 o
4476 2 4 0 -32 2502.47 2017.75 712.54 o
4476 1 0 -4 32 2502.47 2017.75 712.54 o
4477 3 -1 -4 32 312.93 -332.34 838.73 <
4477 1 1 4 32 312.93 -332.34 838.73 <
4478 3 1 4 32 312.94 593.46 838.71 <
4478 1 -1 -4 32 312.94 593.46 838.71 <
4479 3 -2 -4 32 1670.63 2286.79 933.34 o
4479 2 -4 -2 -32 1670.63 2286.79 933.34 o
4479 1 2 4 32 1670.63 2286.79 933.34 o
4480 3 2 4 32 1677.82 1717.07 933.69 <
4480 2 4 2 -32 1677.82 1717.07 933.69 <
4480 1 -2 -4 32 1677.82 1717.07 933.69 <
4481 3 -3 -4 32 3.56 -7.91 917.88 <
4481 1 3 4 32 3.56 -7.91 917.88 <
4482 3 3 4 32 3.57 23.74 902.05 <
4482 1 -3 -4 32 3.57 23.74 902.05 <
4483 3 -4 -4 32 1330.87 830.84 918.02 <
4483 2 -4 -4 -32 1330.87 830.84 918.02 <
4483 1 4 4 32 1330.87 830.84 918.02 <
4484 3 4 4 32 1331.38 1819.93 798.92 o
4484 2 4 4 -32 1331.38 1819.93 798.92 o
4484 1 -4 -4 32 1331.38 1819.93 798.92 o
4485 3 -5 -4 32 335.19 1843.67 758.91 o
4485 1 5 4 32 335.19 1843.67 758.91 o
4486 3 5 4 32 336.04 1922.80 845.97 o
4486 1 -5 -4 32 336.04 1922.80 845.97 o
4487 3 -6 -4 32 498.40 2547.91 948.46 o
4487 2 -4 -6 -32 498.40 2547.91 948.46 o
4487 1 6 4 32 498.40 2547.91 948.46 o
4488 3 6 4 32 500.87 1622.11 964.97 <
4488 2 4 6 -32 500.87 1622.11 964.97 <
4488 1 -6 -4 32 500.87 1622.11 964.97 <
4489 3 4 -6 32 541.36 -332.34 854.57 <
4489 2 -6 4 -32 541.36 -332.34 854.57 <
4489 1 -4 6 32 541.36 -332.34 854.57 <
4490 3 -4 6 32 539.14 862.49 561.69 <
4490 2 6 -4 -32 539.14 862.49 561.69 <
4490 1 4 -6 32 539.14 862.49 561.69 <
4491 3 3 -6 32 136.63 181.99 894.14 <
4491 1 -3 6 32 136.63 181.99 894.14 <
4492 3 -3 6 32 137.23 261.12 609.27 <
4492 1 3 -6 32 137.23 261.12 609.27 <
4493 3 2 -6 32 1245.43 1717.07 886.01 <
4493 2 -6 2 -32 1245.43 1717.07 886.01 <
4493 1 -2 6 32 1245.43 1717.07 886.01 <
4494 3 -2 6 32 1242.00 1748.72 680.18 o
4494 2 6 -2 -32 1242.00 1748.72 680.18 o
4494 1 2 -6 32 1242.00 1748.72 680.18 o
4495 3 1 -6 32 52.09 2088.97 932.89 o
4495 1 -1 6 32 52.09 2088.97 932.89 o
4496 3 -1 6 32 51.77 427.29 759.59 <
4496 1 1 -6 32 51.77 427.29 759.59 <
4497 3 0 -6 32 1313.94 2049.40 870.00 o
4497 2 -6 0 -32 1313.94 2049.40 870.00 o
4497 1 0 6 32 1313.94 2049.40 870.00 o
4498 3 0 6 32 1315.68 997.01 917.98 <
4498 2 6 0 -32 1315.68 997.01 917.98 <
4498 1 0 -6 32 1315.68 997.01 917.98 <
4499 3 -1 -6 32 52.09 -174.08 815.01 <
4499 1 1 6 32 52.09 -174.08 815.01 <
4500 3 1 6 32 51.77 -348.16 878.29 <
4500 1 -1 -6 32 51.77 -348.16 878.29 <
4501 3 -2 -6 32 1242.30 2247.22 846.06 o
4501 2 -6 -2 -32 1242.30 2247.22 846.06 o
4501 1 2 6 32 1242.30 2247.22 846.06 o
4502 3 2 6 32 1245.14 2547.91 845.80 o
4502 2 6 2 -32 1245.14 2547.91 845.80 o
4502 1 -2 -6 32 1245.14 2547.91 845.80 o
4503 3 -3 -6 32 136.63 1171.09 893.89 <
4503 1 3 6 32 136.63 1171.09 893.89 <
4504 3 3 6 32 137.23 1424.30 862.09 <
4504 1 -3 -6 32 137.23 1424.30 862.09 <
4505 3 -4 -6 32 538.59 2365.91 988.23 o
4505 2 -6 -4 -32 538.59 2365.91 988.23 o
4505 1 4 6 32 538.59 2365.91 988.23 o
4506 3 4 6 32 541.91 1614.20 996.65 <
4506 2 6 4 -32 541.91 1614.20 996.65 <
4506 1 -4 -6 32 541.91 1614.20 996.65 <
4507 3 6 -1 33 239.14 -577.63 965.29 <
4507 1 -6 1 33 239.14 -577.63 965.29 <
4508 3 -6 1 33 239.89 1171.09 529.75 o
4508 1 6 -1 33 239.89 1171.09 529.75 o
4509 3 5 -1 33 688.54 1622.11 1004.60 <
4509 2 -1 5 -33 688.54 1622.11 1004.60 <
4509 1 -5 1 33 688.54 1622.11 1004.60 <
4510 3 -5 1 33 685.31 1099.87 743.66 <
4510 2 1 -5 -33 685.31 1099.87 743.66 <
4510 1 5 -1 33 685.31 1099.87 743.66 <
4511 3 4 -1 33 851.52 1384.73 569.42 o
4511 1 -4 1 33 851.52 1384.73 569.42 o
4512 3 -4 1 33 853.35 720.06 664.71 <
4512 1 4 -1 33 853.35 720.06 664.71 <
4513 3 3 -1 33 2864.59 2437.13 657.21 o
4513 2 -1 3 -33 2864.59 2437.13 657.21 o
4513 1 -3 1 33 2864.59 2437.13 657.21 o
4514 3 -3 1 33 2851.17 2081.05 673.30 o
4514 2 1 -3 -33 2851.17 2081.05 673.30 o
4514 1 3 -1 33 2851.17 2081.05 673.30 o
4515 3 2 -1 33 738.22 1194.83 664.48 <
4515 1 -2 1 33 738.22 1194.83 664.48 <
4516 3 -2 1 33 739.21 609.28 601.41 <
4516 1 2 -1 33 739.21 609.28 601.41 <
4517 3 1 -1 33 6395.03 6195.69 649.36 o
4517 2 -1 1 -33 6395.03 6195.69 649.36 o
4517 1 -1 1 33 6395.03 6195.69 649.36 o
4518 3 -1 1 33 6387.80 6338.12 736.00 o
4518 2 1 -1 -33 6387.80 6338.12 736.00 o
4518 1 1 -1 33 6387.80 6338.12 736.00 o
4519 3 -1 -1 33 6382.76 6757.49 711.22 o
4519 2 -1 -1 -33 6382.76 6757.49 711.22 o
4519 1 1 1 33 6382.76 6757.49 711.22 o
4520 3 1 1 33 6400.06 6077.00 720.80 o
4520 2 1 1 -33 6400.06 6077.00 720.80 o
4520 1 -1 -1 33 6400.06 6077.00 720.80 o
4521 3 -2 -1 33 738.22 957.44 735.82 <
4521 1 2 1 33 738.22 957.44 735.82 <
4522 3 2 1 33 739.21 1574.64 672.16 o
4522 1 -2 -1 33 739.21 1574.64 672.16 o
4523 3 -3 -1 33 2851.47 3133.45 727.66 o
4523 2 -1 -3 -33 2851.47 3133.45 727.66 o
4523 1 3 1 33 2851.47 3133.45 727.66 o
4524 3 3 1 33 2864.27 2706.16 696.49 o
4524 2 1 3 -33 2864.27 2706.16 696.49 o
4524 1 -3 -1 33 2864.27 2706.16 696.49 o
4525 3 -4 -1 33 851.52 1305.60 727.78 <
4525 1 4 1 33 851.52 1305.60 727.78 <
4526 3 4 1 33 853.35 1139.44 632.90 <
4526 1 -4 -1 33 853.35 1139.44 632.90 <
4527 3 -5 -1 33 686.18 1376.82 783.09 <
4527 2 -1 -5 -33 686.18 1376.82 783.09 <
4527 1 5 1 33 686.18 1376.82 783.09 <
4528 3 5 1 33 687.67 1012.83 712.04 <
4528 2 1 5 -33 687.67 1012.83 712.04 <
4528 1 -5 -1 33 687.67 1012.83 712.04 <
4529 3 -6 -1 33 239.15 640.93 822.86 <
4529 1 6 1 33 239.15 640.93 822.86 <
4530 3 6 1 33 239.89 720.06 751.62 <
4530 1 -6 -1 33 239.89 720.06 751.62 <
4531 3 6 -3 33 108.07 1028.66 901.86 <
4531 1 -6 3 33 108.07 1028.66 901.86 <
4532 3 -6 3 33 109.09 403.55 545.94 <
4532 1 6 -3 33 109.09 403.55 545.94 <
4533 3 5 -3 33 561.77 1503.42 775.07 <
4533 2 -3 5 -33 561.77 1503.42 775.07 <
4533 1 -5 3 33 561.77 1503.42 775.07 <
4534 3 -5 3 33 560.28 854.58 514.21 <
4534 2 3 -5 -33 560.28 854.58 514.21 <
4534 1 5 -3 33 560.28 854.58 514.21 <
4535 3 4 -3 33 224.92 989.09 806.91 <
4535 1 -4 3 33 224.92 989.09 806.91 <
4536 3 -4 3 33 227.03 909.97 545.75 <
4536 1 4 -3 33 227.03 909.97 545.75 <
4537 3 3 -3 33 1437.66 2009.84 885.91 o
4537 2 -3 3 -33 1437.66 2009.84 885.91 o
4537 1 -3 3 33 1437.66 2009.84 885.91 o
4538 3 -3 3 33 1437.81 1250.22 554.01 o
4538 2 3 -3 -33 1437.81 1250.22 554.01 o
4538 1 3 -3 33 1437.81 1250.22 554.01 o
4539 3 2 -3 33 177.16 -15.83 791.28 <
4539 1 -2 3 33 177.16 -15.83 791.28 <
4540 3 -2 3 33 177.96 569.72 522.15 <
4540 1 2 -3 33 177.96 569.72 522.15 <
4541 3 1 -3 33 2950.33 3323.36 806.71 o
4541 2 -3 1 -33 2950.33 3323.36 806.71 o
4541 1 -1 3 33 2950.33 3323.36 806.71 o
4542 3 -1 3 33 2956.46 2998.93 593.40 o
4542 2 3 -1 -33 2956.46 2998.93 593.40 o
4542 1 1 -3 33 2956.46 2998.93 593.40 o
4543 3 -1 -3 33 2951.06 2793.20 807.25 o
4543 2 -3 -1 -33 2951.06 2793.20 807.25 o
4543 1 1 3 33 2951.06 2793.20 807.25 o
4544 3 1 3 33 2955.72 2903.98 712.21 o
4544 2 3 1 -33 2955.72 2903.98 712.21 o
4544 1 -1 -3 33 2955.72 2903.98 712.21 o
4545 3 -2 -3 33 177.16 -308.60 807.08 <
4545 1 2 3 33 177.16 -308.60 807.08 <
4546 3 2 3 33 177.96 664.67 807.02 <
4546 1 -2 -3 33 177.96 664.67 807.02 <
4547 3 -3 -3 33 1437.92 1511.34 917.85 <
4547 2 -3 -3 -33 1437.92 1511.34 917.85 <
4547 1 3 3 33 1437.92 1511.34 917.85 <
4548 3 3 3 33 1437.55 2658.69 893.32 o
4548 2 3 3 -33 1437.55 2658.69 893.32 o
4548 1 -3 -3 33 1437.55 2658.69 893.32 o
4549 3 -4 -3 33 224.92 0.00 894.15 <
4549 1 4 3 33 224.92 0.00 894.15 <
4550 3 4 3 33 227.03 941.62 886.08 <
4550 1 -4 -3 33 227.03 941.62 886.08 <
4551 3 -5 -3 33 560.84 0.00 886.26 <
4551 2 -3 -5 -33 560.84 0.00 886.26 <
4551 1 5 3 33 560.84 0.00 886.26 <
4552 3 5 3 33 561.21 712.15 814.98 <
4552 2 3 5 -33 561.21 712.15 814.98 <
4552 1 -5 -3 33 561.21 712.15 814.98 <
4553 3 -6 -3 33 108.07 1052.40 901.85 <
4553 1 6 3 33 108.07 1052.40 901.85 <
4554 3 6 3 33 109.09 1883.24 901.38 o
4554 1 -6 -3 33 109.09 1883.24 901.38 o
4555 3 4 -5 33 48.77 71.21 878.32 <
4555 1 -4 5 33 48.77 71.21 878.32 <
4556 3 -4 5 33 49.37 181.99 522.23 <
4556 1 4 -5 33 49.37 181.99 522.23 <
4557 3 3 -5 33 566.41 633.02 878.30 <
4557 2 -5 3 -33 566.41 633.02 878.30 <
4557 1 -3 5 33 566.41 633.02 878.30 <
4558 3 -3 5 33 568.16 1827.85 553.04 o
4558 2 5 -3 -33 568.16 1827.85 553.04 o
4558 1 3 -5 33 568.16 1827.85 553.04 o
4559 3 2 -5 33 20.76 -126.60 909.96 <
4559 1 -2 5 33 20.76 -126.60 909.96 <
4560 3 -2 5 33 20.81 427.29 640.88 <
4560 1 2 -5 33 20.81 427.29 640.88 <
4561 3 1 -5 33 672.67 2041.49 909.33 o
4561 2 -5 1 -33 672.67 2041.49 909.33 o
4561 1 -1 5 33 672.67 2041.49 909.33 o
4562 3 -1 5 33 675.76 419.38 680.55 <
4562 2 5 -1 -33 675.76 419.38 680.55 <
4562 1 1 -5 33 675.76 419.38 680.55 <
4563 3 -1 -5 33 674.79 1487.60 917.59 <
4563 2 -5 -1 -33 674.79 1487.60 917.59 <
4563 1 1 5 33 674.79 1487.60 917.59 <
4564 3 1 5 33 673.65 1843.67 941.14 <
4564 2 5 1 -33 673.65 1843.67 941.14 <
4564 1 -1 -5 33 673.65 1843.67 941.14 <
4565 3 -2 -5 33 20.76 -300.68 909.95 <
4565 1 2 5 33 20.76 -300.68 909.95 <
4566 3 2 5 33 20.81 332.34 791.25 <
4566 1 -2 -5 33 20.81 332.34 791.25 <
4567 3 -3 -5 33 567.77 -55.39 838.78 <
4567 2 -5 -3 -33 567.77 -55.39 838.78 <
4567 1 3 5 33 567.77 -55.39 838.78 <
4568 3 3 5 33 566.80 237.38 815.05 <
4568 2 5 3 -33 566.80 237.38 815.05 <
4568 1 -3 -5 33 566.80 237.38 815.05 <
4569 3 -4 -5 33 48.77 720.06 862.39 <
4569 1 4 5 33 48.77 720.06 862.39 <
4570 3 4 5 33 49.37 577.63 909.91 <
4570 1 -4 -5 33 49.37 577.63 909.91 <
4571 3 0 0 34 7941.60 6401.42 708.26 o
4571 2 0 0 -34 7941.60 6401.42 708.26 o
4571 1 0 0 34 7941.60 6401.42 708.26 o
4572 3 -1 0 34 80.04 -150.34 617.19 <
4572 1 1 0 34 80.04 -150.34 617.19 <
4573 3 1 0 34 80.04 308.60 633.00 <
4573 1 -1 0 34 80.04 308.60 633.00 <
4574 3 -2 0 34 4972.02 6274.81 693.40 o
4574 2 0 -2 -34 4972.02 6274.81 693.40 o
4574 1 2 0 34 4972.02 6274.81 693.40 o
4575 3 2 0 34 4973.94 6733.75 692.17 o
4575 2 0 2 -34 4973.94 6733.75 692.17 o
4575 1 -2 0 34 4973.94 6733.75 692.17 o
4576 3 -3 0 34 66.70 -134.52 680.49 <
4576 1 3 0 34 66.70 -134.52 680.49 <
4577 3 3 0 34 66.70 822.93 617.01 <
4577 1 -3 0 34 66.70 822.93 617.01 <
4578 3 -4 0 34 279.79 648.85 656.68 <
4578 2 0 -4 -34 279.79 648.85 656.68 <
4578 1 4 0 34 279.79 648.85 656.68 <
4579 3 4 0 34 282.20 213.64 640.94 <
4579 2 0 4 -34 282.20 213.64 640.94 <
4579 1 -4 0 34 282.20 213.64 640.94 <
4580 3 -5 0 34 34.56 625.11 696.23 <
4580 1 5 0 34 34.56 625.11 696.23 <
4581 3 5 0 34 34.56 379.81 632.98 <
4581 1 -5 0 34 34.56 379.81 632.98 <
4582 3 -6 0 34 169.64 743.80 759.51 <
4582 2 0 -6 -34 169.64 743.80 759.51 <
4582 1 6 0 34 169.64 743.80 759.51 <
4583 3 6 0 34 171.44 23.74 1028.66 <
4583 2 0 6 -34 171.44 23.74 1028.66 <
4583 1 -6 0 34 171.44 23.74 1028.66 <
4584 3 6 -2 34 122.15 522.24 949.49 <
4584 2 -2 6 -34 122.15 522.24 949.49 <
4584 1 -6 2 34 122.15 522.24 949.49 <
4585 3 -6 2 34 121.52 838.75 601.18 <
4585 2 2 -6 -34 121.52 838.75 601.18 <
4585 1 6 -2 34 121.52 838.75 601.18 <
4586 3 5 -2 34 36.13 150.34 949.53 <
4586 1 -5 2 34 36.13 150.34 949.53 <
4587 3 -5 2 34 36.69 -102.87 530.15 <
4587 1 5 -2 34 36.69 -102.87 530.15 <
4588 3 4 -2 34 574.41 1044.48 822.79 <
4588 2 -2 4 -34 574.41 1044.48 822.79 <
4588 1 -4 2 34 574.41 1044.48 822.79 <
4589 3 -4 2 34 570.41 838.75 522.14 <
4589 2 2 -4 -34 570.41 838.75 522.14 <
4589 1 4 -2 34 570.41 838.75 522.14 <
4590 3 3 -2 34 76.27 664.67 901.97 <
4590 1 -3 2 34 76.27 664.67 901.97 <
4591 3 -3 2 34 76.03 261.12 522.22 <
4591 1 3 -2 34 76.03 261.12 522.22 <
4592 3 2 -2 34 1737.28 1812.02 973.23 <
4592 2 -2 2 -34 1737.28 1812.02 973.23 <
4592 1 -2 2 34 1737.28 1812.02 973.23 <
4593 3 -2 2 34 1732.65 2539.99 687.70 o
4593 2 2 -2 -34 1732.65 2539.99 687.70 o
4593 1 2 -2 34 1732.65 2539.99 687.70 o
4594 3 1 -2 34 82.53 751.71 617.04 <
4594 1 -1 2 34 82.53 751.71 617.04 <
4595 3 -1 2 34 83.21 363.99 656.73 <
4595 1 1 -2 34 83.21 363.99 656.73 <
4596 3 0 -2 34 4996.84 5673.44 710.77 o
4596 2 -2 0 -34 4996.84 5673.44 710.77 o
4596 1 0 2 34 4996.84 5673.44 710.77 o
4597 3 0 2 34 4997.63 6599.24 700.55 o
4597 2 2 0 -34 4997.63 6599.24 700.55 o
4597 1 0 -2 34 4997.63 6599.24 700.55 o
4598 3 -1 -2 34 82.53 458.94 696.27 <
4598 1 1 2 34 82.53 458.94 696.27 <
4599 3 1 2 34 83.21 1036.57 719.81 <
4599 1 -1 -2 34 83.21 1036.57 719.81 <
4600 3 -2 -2 34 1729.38 1455.95 728.13 <
4600 2 -2 -2 -34 1729.38 1455.95 728.13 <
4600 1 2 2 34 1729.38 1455.95 728.13 <
4601 3 2 2 34 1740.55 1234.39 736.14 <
4601 2 2 2 -34 1740.55 1234.39 736.14 <
4601 1 -2 -2 34 1740.55 1234.39 736.14 <
4602 3 -3 -2 34 76.27 -395.64 799.15 <
4602 1 3 2 34 76.27 -395.64 799.15 <
4603 3 3 2 34 76.03 -221.56 759.61 <
4603 1 -3 -2 34 76.03 -221.56 759.61 <
4604 3 -4 -2 34 567.72 886.23 878.24 <
4604 2 -2 -4 -34 567.72 886.23 878.24 <
4604 1 4 2 34 567.72 886.23 878.24 <
4605 3 4 2 34 577.11 221.56 838.79 <
4605 2 2 4 -34 577.11 221.56 838.79 <
4605 1 -4 -2 34 577.11 221.56 838.79 <
4606 3 -5 -2 34 36.13 -23.74 878.32 <
4606 1 5 2 34 36.13 -23.74 878.32 <
4607 3 5 2 34 36.69 1068.22 941.41 <
4607 1 -5 -2 34 36.69 1068.22 941.41 <
4608 3 -6 -2 34 121.82 886.23 783.20 <
4608 2 -2 -6 -34 121.82 886.23 783.20 <
4608 1 6 2 34 121.82 886.23 783.20 <
4609 3 6 2 34 121.85 126.60 902.05 <
4609 2 2 6 -34 121.85 126.60 902.05 <
4609 1 -6 -2 34 121.85 126.60 902.05 <
4610 3 5 -4 34 74.70 625.11 949.46 <
4610 1 -5 4 34 74.70 625.11 949.46 <
4611 3 -5 4 34 74.53 1606.29 568.93 o
4611 1 5 -4 34 74.53 1606.29 568.93 o
4612 3 4 -4 34 177.88 -506.42 862.43 <
4612 2 -4 4 -34 177.88 -506.42 862.43 <
4612 1 -4 4 34 177.88 -506.42 862.43 <
4613 3 -4 4 34 176.88 245.29 522.23 <
4613 2 4 -4 -34 176.88 245.29 522.23 <
4613 1 4 -4 34 176.88 245.29 522.23 <
4614 3 3 -4 34 49.93 704.23 854.48 <
4614 1 -3 4 34 49.93 704.23 854.48 <
4615 3 -3 4 34 50.73 917.88 553.63 <
4615 1 3 -4 34 50.73 917.88 553.63 <
4616 3 2 -4 34 538.82 126.60 807.14 <
4616 2 -4 2 -34 538.82 126.60 807.14 <
4616 1 -2 4 34 538.82 126.60 807.14 <
4617 3 -2 4 34 535.05 846.66 553.78 <
4617 2 4 -2 -34 535.05 846.66 553.78 <
4617 1 2 -4 34 535.05 846.66 553.78 <
4618 3 1 -4 34 54.96 363.99 807.07 <
4618 1 -1 4 34 54.96 363.99 807.07 <
4619 3 -1 4 34 54.51 451.03 617.14 <
4619 1 1 -4 34 54.51 451.03 617.14 <
4620 3 0 -4 34 238.26 577.63 814.96 <
4620 2 -4 0 -34 238.26 577.63 814.96 <
4620 1 0 4 34 238.26 577.63 814.96 <
4621 3 0 4 34 239.25 348.16 704.22 <
4621 2 4 0 -34 239.25 348.16 704.22 <
4621 1 0 -4 34 239.25 348.16 704.22 <
4622 3 -1 -4 34 54.96 1930.71 853.81 o
4622 1 1 4 34 54.96 1930.71 853.81 o
4623 3 1 4 34 54.51 822.93 862.36 <
4623 1 -1 -4 34 54.51 822.93 862.36 <
4624 3 -2 -4 34 532.29 356.07 902.08 <
4624 2 -4 -2 -34 532.29 356.07 902.08 <
4624 1 2 4 34 532.29 356.07 902.08 <
4625 3 2 4 34 541.58 1479.69 901.73 <
4625 2 4 2 -34 541.58 1479.69 901.73 <
4625 1 -2 -4 34 541.58 1479.69 901.73 <
4626 3 -3 -4 34 49.93 1455.95 909.56 <
4626 1 3 4 34 49.93 1455.95 909.56 <
4627 3 3 4 34 50.73 -63.30 917.88 <
4627 1 -3 -4 34 50.73 -63.30 917.88 <
4628 3 -4 -4 34 176.18 846.66 878.19 <
4628 2 -4 -4 -34 176.18 846.66 878.19 <
4628 1 4 4 34 176.18 846.66 878.19 <
4629 3 4 4 34 178.59 601.37 902.00 <
4629 2 4 4 -34 178.59 601.37 902.00 <
4629 1 -4 -4 34 178.59 601.37 902.00 <
4630 3 -5 -4 34 74.70 1210.65 893.86 <
4630 1 5 4 34 74.70 1210.65 893.86 <
4631 3 5 4 34 74.53 -237.38 886.22 <
4631 1 -5 -4 34 74.53 -237.38 886.22 <
4632 3 3 -6 34 48.08 1479.69 885.80 <
4632 1 -3 6 34 48.08 1479.69 885.80 <
4633 3 -3 6 34 47.68 1329.34 624.61 o
4633 1 3 -6 34 47.68 1329.34 624.61 o
4634 3 2 -6 34 140.55 1788.28 885.61 o
4634 2 -6 2 -34 140.55 1788.28 885.61 o
4634 1 -2 6 34 140.55 1788.28 885.61 o
4635 3 -2 6 34 141.43 799.19 664.52 <
4635 2 6 -2 -34 141.43 799.19 664.52 <
4635 1 2 -6 34 141.43 799.19 664.52 <
4636 3 1 -6 34 19.19 1266.04 870.08 <
4636 1 -1 6 34 19.19 1266.04 870.08 <
4637 3 -1 6 34 19.34 973.27 814.81 <
4637 1 1 -6 34 19.34 973.27 814.81 <
4638 3 0 -6 34 129.70 1487.60 869.97 <
4638 2 -6 0 -34 129.70 1487.60 869.97 <
4638 1 0 6 34 129.70 1487.60 869.97 <
4639 3 0 6 34 130.44 363.99 933.69 <
4639 2 6 0 -34 130.44 363.99 933.69 <
4639 1 0 -6 34 130.44 363.99 933.69 <
4640 3 -1 -6 34 19.19 640.93 846.58 <
4640 1 1 6 34 19.19 640.93 846.58 <
4641 3 1 6 34 19.34 443.11 878.28 <
4641 1 -1 -6 34 19.34 443.11 878.28 <
4642 3 -2 -6 34 141.29 213.64 886.22 <
4642 2 -6 -2 -34 141.29 213.64 886.22 <
4642 1 2 6 34 141.29 213.64 886.22 <
4643 3 2 6 34 140.69 720.06 775.34 <
4643 2 6 2 -34 140.69 720.06 775.34 <
4643 1 -2 -6 34 140.69 720.06 775.34 <
4644 3 -3 -6 34 48.08 1574.64 846.15 <
4644 1 3 6 34 48.08 1574.64 846.15 <
4645 3 3 6 34 47.68 1147.35 909.72 <
4645 1 -3 -6 34 47.68 1147.35 909.72 <
4646 3 6 -1 35 167.51 316.51 973.26 <
4646 1 -6 1 35 167.51 316.51 973.26 <
4647 3 -6 1 35 167.10 633.02 569.61 <
4647 1 6 -1 35 167.10 633.02 569.61 <
4648 3 5 -1 35 206.41 47.48 949.53 <
4648 2 -1 5 -35 206.41 47.48 949.53 <
4648 1 -5 1 35 206.41 47.48 949.53 <
4649 3 -5 1 35 204.17 712.15 767.44 <
4649 2 1 -5 -35 204.17 712.15 767.44 <
4649 1 5 -1 35 204.17 712.15 767.44 <
4650 3 4 -1 35 515.84 617.20 640.91 <
4650 1 -4 1 35 515.84 617.20 640.91 <
4651 3 -4 1 35 515.49 1479.69 687.98 o
4651 1 4 -1 35 515.49 1479.69 687.98 o
4652 3 3 -1 35 116.52 1234.39 664.28 <
4652 2 -1 3 -35 116.52 1234.39 664.28 <
4652 1 -3 1 35 116.52 1234.39 664.28 <
4653 3 -3 1 35 112.10 1028.66 743.56 <
4653 2 1 -3 -35 112.10 1028.66 743.56 <
4653 1 3 -1 35 112.10 1028.66 743.56 <
4654 3 2 -1 35 396.67 981.18 711.98 <
4654 1 -2 1 35 396.67 981.18 711.98 <
4655 3 -2 1 35 396.90 1542.99 648.30 o
4655 1 2 -1 35 396.90 1542.99 648.30 o
4656 3 1 -1 35 206.88 -253.21 648.83 <
4656 2 -1 1 -35 206.88 -253.21 648.83 <
4656 1 -1 1 35 206.88 -253.21 648.83 <
4657 3 -1 1 35 205.05 261.12 609.28 <
4657 2 1 -1 -35 205.05 261.12 609.28 <
4657 1 1 -1 35 205.05 261.12 609.28 <
4658 3 -1 -1 35 203.77 126.60 680.50 <
4658 2 -1 -1 -35 203.77 126.60 680.50 <
4658 1 1 1 35 203.77 126.60 680.50 <
4659 3 1 1 35 208.16 181.99 680.50 <
4659 2 1 1 -35 208.16 181.99 680.50 <
4659 1 -1 -1 35 208.16 181.99 680.50 <
4660 3 -2 -1 35 396.67 799.19 648.74 <
4660 1 2 1 35 396.67 799.19 648.74 <
4661 3 2 1 35 396.91 799.19 656.65 <
4661 1 -2 -1 35 396.91 799.19 656.65 <
4662 3 -3 -1 35 110.60 957.44 696.10 <
4662 2 -1 -3 -35 110.60 957.44 696.10 <
4662 1 3 1 35 110.60 957.44 696.10 <
4663 3 3 1 35 118.02 71.21 617.20 <
4663 2 1 3 -35 118.02 71.21 617.20 <
4663 1 -3 -1 35 118.02 71.21 617.20 <
4664 3 -4 -1 35 515.84 743.80 735.83 <
4664 1 4 1 35 515.84 743.80 735.83 <
4665 3 4 1 35 515.49 902.05 680.38 <
4665 1 -4 -1 35 515.49 902.05 680.38 <
4666 3 -5 -1 35 204.32 490.59 799.15 <
4666 2 -1 -5 -35 204.32 490.59 799.15 <
4666 1 5 1 35 204.32 490.59 799.15 <
4667 3 5 1 35 206.26 379.81 720.04 <
4667 2 1 5 -35 206.26 379.81 720.04 <
4667 1 -5 -1 35 206.26 379.81 720.04 <
4668 3 -6 -1 35 167.51 878.32 830.69 <
4668 1 6 1 35 167.51 878.32 830.69 <
4669 3 6 1 35 167.10 545.98 751.66 <
4669 1 -6 -1 35 167.10 545.98 751.66 <
4670 3 5 -3 35 231.84 474.77 814.98 <
4670 2 -3 5 -35 231.84 474.77 814.98 <
4670 1 -5 3 35 231.84 474.77 814.98 <
4671 3 -5 3 35 231.10 269.03 561.80 <
4671 2 3 -5 -35 231.10 269.03 561.80 <
4671 1 5 -3 35 231.10 269.03 561.80 <
4672 3 4 -3 35 139.41 925.79 799.01 <
4672 1 -4 3 35 139.41 925.79 799.01 <
4673 3 -4 3 35 139.11 142.43 522.24 <
4673 1 4 -3 35 139.11 142.43 522.24 <
4674 3 3 -3 35 160.01 427.29 807.07 <
4674 2 -3 3 -35 160.01 427.29 807.07 <
4674 1 -3 3 35 160.01 427.29 807.07 <
4675 3 -3 3 35 158.59 973.27 593.20 <
4675 2 3 -3 -35 158.59 973.27 593.20 <
4675 1 3 -3 35 158.59 973.27 593.20 <
4676 3 2 -3 35 117.14 981.18 830.65 <
4676 1 -2 3 35 117.14 981.18 830.65 <
4677 3 -2 3 35 117.28 490.59 530.09 <
4677 1 2 -3 35 117.28 490.59 530.09 <
4678 3 1 -3 35 95.58 261.12 743.79 <
4678 2 -3 1 -35 95.58 261.12 743.79 <
4678 1 -1 3 35 95.58 261.12 743.79 <
4679 3 -1 3 35 94.39 -181.99 569.71 <
4679 2 3 -1 -35 94.39 -181.99 569.71 <
4679 1 1 -3 35 94.39 -181.99 569.71 <
4680 3 -1 -3 35 91.94 -142.43 870.40 <
4680 2 -3 -1 -35 91.94 -142.43 870.40 <
4680 1 1 3 35 91.94 -142.43 870.40 <
4681 3 1 3 35 98.02 348.16 696.30 <
4681 2 3 1 -35 98.02 348.16 696.30 <
4681 1 -1 -3 35 98.02 348.16 696.30 <
4682 3 -2 -3 35 117.14 838.75 838.61 <
4682 1 2 3 35 117.14 838.75 838.61 <
4683 3 2 3 35 117.28 1020.75 846.46 <
4683 1 -2 -3 35 117.28 1020.75 846.46 <
4684 3 -3 -3 35 157.60 94.95 902.06 <
4684 2 -3 -3 -35 157.60 94.95 902.06 <
4684 1 3 3 35 157.60 94.95 902.06 <
4685 3 3 3 35 161.00 1004.92 870.22 <
4685 2 3 3 -35 161.00 1004.92 870.22 <
4685 1 -3 -3 35 161.00 1004.92 870.22 <
4686 3 -4 -3 35 139.41 1091.96 949.32 <
4686 1 4 3 35 139.41 1091.96 949.32 <
4687 3 4 3 35 139.11 -221.56 981.17 <
4687 1 -4 -3 35 139.11 -221.56 981.17 <
4688 3 -5 -3 35 230.55 7.91 902.06 <
4688 2 -3 -5 -35 230.55 7.91 902.06 <
4688 1 5 3 35 230.55 7.91 902.06 <
4689 3 5 3 35 232.38 1368.91 901.72 <
4689 2 3 5 -35 232.38 1368.91 901.72 <
4689 1 -5 -3 35 232.38 1368.91 901.72 <
4690 3 4 -5 35 40.38 1289.78 917.56 <
4690 1 -4 5 35 40.38 1289.78 917.56 <
4691 3 -4 5 35 40.23 822.93 561.60 <
4691 1 4 -5 35 40.23 822.93 561.60 <
4692 3 3 -5 35 241.68 1321.43 893.83 <
4692 2 -5 3 -35 241.68 1321.43 893.83 <
4692 1 -3 5 35 241.68 1321.43 893.83 <
4693 3 -3 5 35 240.89 1044.48 616.92 <
4693 2 5 -3 -35 240.89 1044.48 616.92 <
4693 1 3 -5 35 240.89 1044.48 616.92 <
4694 3 2 -5 35 18.39 1155.26 838.47 <
4694 1 -2 5 35 18.39 1155.26 838.47 <
4695 3 -2 5 35 18.55 403.55 609.24 <
4695 1 2 -5 35 18.55 403.55 609.24 <
4696 3 1 -5 35 205.96 1289.78 901.76 <
4696 2 -5 1 -35 205.96 1289.78 901.76 <
4696 1 -1 5 35 205.96 1289.78 901.76 <
4697 3 -1 5 35 207.19 1028.66 704.00 <
4697 2 5 -1 -35 207.19 1028.66 704.00 <
4697 1 1 -5 35 207.19 1028.66 704.00 <
4698 3 -1 -5 35 206.34 846.66 917.76 <
4698 2 -5 -1 -35 206.34 846.66 917.76 <
4698 1 1 5 35 206.34 846.66 917.76 <
4699 3 1 5 35 206.82 1115.70 949.32 <
4699 2 5 1 -35 206.82 1115.70 949.32 <
4699 1 -1 -5 35 206.82 1115.70 949.32 <
4700 3 -2 -5 35 18.39 727.97 862.38 <
4700 1 2 5 35 18.39 727.97 862.38 <
4701 3 2 5 35 18.55 617.20 870.33 <
4701 1 -2 -5 35 18.55 617.20 870.33 <
4702 3 -3 -5 35 240.36 -63.30 870.41 <
4702 2 -5 -3 -35 240.36 -63.30 870.41 <
4702 1 3 5 35 240.36 -63.30 870.41 <
4703 3 3 5 35 242.21 -181.99 846.66 <
4703 2 5 3 -35 242.21 -181.99 846.66 <
4703 1 -3 -5 35 242.21 -181.99 846.66 <
4704 3 -4 -5 35 40.38 221.56 925.78 <
4704 1 4 5 35 40.38 221.56 925.78 <
4705 3 4 5 35 40.23 925.79 941.46 <
4705 1 -4 -5 35 40.23 925.79 941.46 <
4706 3 0 0 36 4477.54 4652.70 624.76 o
4706 2 0 0 -36 4477.54 4652.70 624.76 o
4706 1 0 0 36 4477.54 4652.70 624.76 o
4707 3 -1 0 36 591.33 838.75 712.08 <
4707 1 1 0 36 591.33 838.75 712.08 <
4708 3 1 0 36 591.34 909.97 696.22 <
4708 1 -1 0 36 591.34 909.97 696.22 <
4709 3 -2 0 36 2514.78 3070.15 743.22 o
4709 2 0 -2 -36 2514.78 3070.15 743.22 o
4709 1 2 0 36 2514.78 3070.15 743.22 o
4710 3 2 0 36 2515.03 2073.14 649.25 o
4710 2 0 2 -36 2515.03 2073.14 649.25 o
4710 1 -2 0 36 2515.03 2073.14 649.25 o
4711 3 -3 0 36 68.56 94.95 680.50 <
4711 1 3 0 36 68.56 94.95 680.50 <
4712 3 3 0 36 68.56 47.48 672.59 <
4712 1 -3 0 36 68.56 47.48 672.59 <
4713 3 -4 0 36 790.35 1701.24 680.00 o
4713 2 0 -4 -36 790.35 1701.24 680.00 o
4713 1 4 0 36 790.35 1701.24 680.00 o
4714 3 4 0 36 787.42 1463.86 632.67 o
4714 2 0 4 -36 787.42 1463.86 632.67 o
4714 1 -4 0 36 787.42 1463.86 632.67 o
4715 3 -5 0 36 593.19 585.54 767.54 <
4715 1 5 0 36 593.19 585.54 767.54 <
4716 3 5 0 36 593.19 838.75 704.16 <
4716 1 -5 0 36 593.19 838.75 704.16 <
4717 3 -6 0 36 213.82 1701.24 854.02 <
4717 2 0 -6 -36 213.82 1701.24 854.02 <
4717 1 6 0 36 213.82 1701.24 854.02 <
4718 3 6 0 36 215.03 -324.42 1099.85 <
4718 2 0 6 -36 215.03 -324.42 1099.85 <
4718 1 -6 0 36 215.03 -324.42 1099.85 <
4719 3 5 -2 36 16.09 2088.97 901.20 o
4719 1 -5 2 36 16.09 2088.97 901.20 o
4720 3 -5 2 36 15.99 1052.40 577.29 <
4720 1 5 -2 36 15.99 1052.40 577.29 <
4721 3 4 -2 36 607.64 1084.05 799.04 <
4721 2 -2 4 -36 607.64 1084.05 799.04 <
4721 1 -4 2 36 607.64 1084.05 799.04 <
4722 3 -4 2 36 605.58 1353.08 569.33 o
4722 2 2 -4 -36 605.58 1353.08 569.33 o
4722 1 4 -2 36 605.58 1353.08 569.33 o
4723 3 3 -2 36 653.55 -23.74 822.97 <
4723 1 -3 2 36 653.55 -23.74 822.97 <
4724 3 -3 2 36 653.84 174.08 593.53 <
4724 1 3 -2 36 653.84 174.08 593.53 <
4725 3 2 -2 36 1776.64 775.45 847.01 <
4725 2 -2 2 -36 1776.64 775.45 847.01 <
4725 1 -2 2 36 1776.64 775.45 847.01 <
4726 3 -2 2 36 1777.10 1194.83 672.91 <
4726 2 2 -2 -36 1777.10 1194.83 672.91 <
4726 1 2 -2 36 1777.10 1194.83 672.91 <
4727 3 1 -2 36 44.72 94.95 720.06 <
4727 1 -1 2 36 44.72 94.95 720.06 <
4728 3 -1 2 36 44.52 284.86 688.39 <
4728 1 1 -2 36 44.52 284.86 688.39 <
4729 3 0 -2 36 2496.11 2445.04 696.37 o
4729 2 -2 0 -36 2496.11 2445.04 696.37 o
4729 1 0 2 36 2496.11 2445.04 696.37 o
4730 3 0 2 36 2496.21 2959.37 672.07 o
4730 2 2 0 -36 2496.21 2959.37 672.07 o
4730 1 0 -2 36 2496.21 2959.37 672.07 o
4731 3 -1 -2 36 44.72 181.99 727.97 <
4731 1 1 2 36 44.72 181.99 727.97 <
4732 3 1 2 36 44.52 1044.48 696.05 <
4732 1 -1 -2 36 44.52 1044.48 696.05 <
4733 3 -2 -2 36 1777.43 2001.93 727.82 o
4733 2 -2 -2 -36 1777.43 2001.93 727.82 o
4733 1 2 2 36 1777.43 2001.93 727.82 o
4734 3 2 2 36 1776.31 878.32 712.54 <
4734 2 2 2 -36 1776.31 878.32 712.54 <
4734 1 -2 -2 36 1776.31 878.32 712.54 <
4735 3 -3 -2 36 653.55 411.46 822.97 <
4735 1 3 2 36 653.55 411.46 822.97 <
4736 3 3 2 36 653.84 720.06 822.91 <
4736 1 -3 -2 36 653.84 720.06 822.91 <
4737 3 -4 -2 36 605.15 933.71 886.15 <
4737 2 -2 -4 -36 605.15 933.71 886.15 <
4737 1 4 2 36 605.15 933.71 886.15 <
4738 3 4 2 36 608.07 640.93 878.31 <
4738 2 2 4 -36 608.07 640.93 878.31 <
4738 1 -4 -2 36 608.07 640.93 878.31 <
4739 3 -5 -2 36 16.09 997.01 981.00 <
4739 1 5 2 36 16.09 997.01 981.00 <
4740 3 5 2 36 15.99 902.05 941.47 <
4740 1 -5 -2 36 15.99 902.05 941.47 <
4741 3 4 -4 36 384.98 1345.17 980.91 <
4741 2 -4 4 -36 384.98 1345.17 980.91 <
4741 1 -4 4 36 384.98 1345.17 980.91 <
4742 3 -4 4 36 385.30 1068.22 585.28 <
4742 2 4 -4 -36 385.30 1068.22 585.28 <
4742 1 4 -4 36 385.30 1068.22 585.28 <
4743 3 3 -4 36 9.51 79.13 894.14 <
4743 1 -3 4 36 9.51 79.13 894.14 <
4744 3 -3 4 36 9.69 -71.21 585.54 <
4744 1 3 -4 36 9.69 -71.21 585.54 <
4745 3 2 -4 36 573.70 269.03 838.79 <
4745 2 -4 2 -36 573.70 269.03 838.79 <
4745 1 -2 4 36 573.70 269.03 838.79 <
4746 3 -2 4 36 573.67 997.01 593.29 <
4746 2 4 -2 -36 573.67 997.01 593.29 <
4746 1 2 -4 36 573.67 997.01 593.29 <
4747 3 1 -4 36 162.82 981.18 806.91 <
4747 1 -1 4 36 162.82 981.18 806.91 <
4748 3 -1 4 36 163.02 -261.12 648.83 <
4748 1 1 -4 36 163.02 -261.12 648.83 <
4749 3 0 -4 36 755.76 1297.69 862.30 <
4749 2 -4 0 -36 755.76 1297.69 862.30 <
4749 1 0 4 36 755.76 1297.69 862.30 <
4750 3 0 4 36 754.55 886.23 735.85 <
4750 2 4 0 -36 754.55 886.23 735.85 <
4750 1 0 -4 36 754.55 886.23 735.85 <
4751 3 -1 -4 36 162.82 1432.21 957.09 <
4751 1 1 4 36 162.82 1432.21 957.09 <
4752 3 1 4 36 163.02 1511.34 964.96 <
4752 1 -1 -4 36 163.02 1511.34 964.96 <
4753 3 -2 -4 36 572.65 189.91 949.57 <
4753 2 -4 -2 -36 572.65 189.91 949.57 <
4753 1 2 4 36 572.65 189.91 949.57 <
4754 3 2 4 36 574.72 -71.21 965.38 <
4754 2 4 2 -36 574.72 -71.21 965.38 <
4754 1 -2 -4 36 574.72 -71.21 965.38 <
4755 3 -3 -4 36 9.51 -664.67 894.05 <
4755 1 3 4 36 9.51 -664.67 894.05 <
4756 3 3 4 36 9.69 569.72 917.82 <
4756 1 -3 -4 36 9.69 569.72 917.82 <
4757 3 -4 -4 36 385.53 807.10 886.14 <
4757 2 -4 -4 -36 385.53 807.10 886.14 <
4757 1 4 4 36 385.53 807.10 886.14 <
4758 3 4 4 36 384.76 63.30 909.98 <
4758 2 4 4 -36 384.76 63.30 909.98 <
4758 1 -4 -4 36 384.76 63.30 909.98 <
4759 3 1 -6 36 29.85 1503.42 909.53 <
4759 1 -1 6 36 29.85 1503.42 909.53 <
4760 3 -1 6 36 29.90 300.68 981.17 <
4760 1 1 -6 36 29.90 300.68 981.17 <
4761 3 0 -6 36 165.97 1606.29 909.49 <
4761 2 -6 0 -36 165.97 1606.29 909.49 <
4761 1 0 6 36 165.97 1606.29 909.49 <
4762 3 0 6 36 166.47 1519.25 957.04 <
4762 2 6 0 -36 166.47 1519.25 957.04 <
4762 1 0 -6 36 166.47 1519.25 957.04 <
4763 3 -1 -6 36 29.85 118.69 775.45 <
4763 1 1 6 36 29.85 118.69 775.45 <
4764 3 1 6 36 29.90 1535.07 901.59 <
4764 1 -1 -6 36 29.90 1535.07 901.59 <
4765 3 5 -1 37 316.94 672.58 909.91 <
4765 2 -1 5 -37 316.94 672.58 909.91 <
4765 1 -5 1 37 316.94 672.58 909.91 <
4766 3 -5 1 37 315.57 1107.79 593.16 <
4766 2 1 -5 -37 315.57 1107.79 593.16 <
4766 1 5 -1 37 315.57 1107.79 593.16 <
4767 3 4 -1 37 22.31 941.62 648.61 <
4767 1 -4 1 37 22.31 941.62 648.61 <
4768 3 -4 1 37 22.12 917.88 632.79 <
4768 1 4 -1 37 22.12 917.88 632.79 <
4769 3 3 -1 37 1638.48 1748.72 704.16 o
4769 2 -1 3 -37 1638.48 1748.72 704.16 o
4769 1 -3 1 37 1638.48 1748.72 704.16 o
4770 3 -3 1 37 1637.00 902.05 712.46 <
4770 2 1 -3 -37 1637.00 902.05 712.46 <
4770 1 3 -1 37 1637.00 902.05 712.46 <
4771 3 2 -1 37 19.51 371.90 727.94 <
4771 1 -2 1 37 19.51 371.90 727.94 <
4772 3 -2 1 37 19.54 522.24 696.25 <
4772 1 2 -1 37 19.54 522.24 696.25 <
4773 3 1 -1 37 4594.42 4462.79 657.00 o
4773 2 -1 1 -37 4594.42 4462.79 657.00 o
4773 1 -1 1 37 4594.42 4462.79 657.00 o
4774 3 -1 1 37 4594.27 4257.06 744.33 o
4774 2 1 -1 -37 4594.27 4257.06 744.33 o
4774 1 1 -1 37 4594.27 4257.06 744.33 o
4775 3 -1 -1 37 4594.16 4494.44 704.41 o
4775 2 -1 -1 -37 4594.16 4494.44 704.41 o
4775 1 1 1 37 4594.16 4494.44 704.41 o
4776 3 1 1 37 4594.53 4462.79 751.92 o
4776 2 1 1 -37 4594.53 4462.79 751.92 o
4776 1 -1 -1 37 4594.53 4462.79 751.92 o
4777 3 -2 -1 37 19.51 1266.04 695.92 <
4777 1 2 1 37 19.51 1266.04 695.92 <
4778 3 2 1 37 19.54 213.64 633.01 <
4778 1 -2 -1 37 19.54 213.64 633.01 <
4779 3 -3 -1 37 1637.25 1345.17 767.68 <
4779 2 -1 -3 -37 1637.25 1345.17 767.68 <
4779 1 3 1 37 1637.25 1345.17 767.68 <
4780 3 3 1 37 1638.24 1353.08 759.77 <
4780 2 1 3 -37 1638.24 1353.08 759.77 <
4780 1 -3 -1 37 1638.24 1353.08 759.77 <
4781 3 -4 -1 37 22.31 -87.04 791.27 <
4781 1 4 1 37 22.31 -87.04 791.27 <
4782 3 4 1 37 22.12 538.07 719.99 <
4782 1 -4 -1 37 22.12 538.07 719.99 <
4783 3 -5 -1 37 316.52 1186.91 822.67 <
4783 2 -1 -5 -37 316.52 1186.91 822.67 <
4783 1 5 1 37 316.52 1186.91 822.67 <
4784 3 5 1 37 315.99 617.20 751.66 <
4784 2 1 5 -37 315.99 617.20 751.66 <
4784 1 -5 -1 37 315.99 617.20 751.66 <
4785 3 4 -3 37 6.06 -292.77 909.95 <
4785 1 -4 3 37 6.06 -292.77 909.95 <
4786 3 -4 3 37 5.85 791.28 537.86 <
4786 1 4 -3 37 5.85 791.28 537.86 <
4787 3 3 -3 37 786.59 514.33 925.84 <
4787 2 -3 3 -37 786.59 514.33 925.84 <
4787 1 -3 3 37 786.59 514.33 925.84 <
4788 3 -3 3 37 787.95 870.40 569.69 <
4788 2 3 -3 -37 787.95 870.40 569.69 <
4788 1 3 -3 37 787.95 870.40 569.69 <
4789 3 2 -3 37 4.74 672.58 965.27 <
4789 1 -2 3 37 4.74 672.58 965.27 <
4790 3 -2 3 37 4.73 886.23 577.39 <
4790 1 2 -3 37 4.73 886.23 577.39 <
4791 3 1 -3 37 1620.26 1606.29 838.76 <
4791 2 -3 1 -37 1620.26 1606.29 838.76 <
4791 1 -1 3 37 1620.26 1606.29 838.76 <
4792 3 -1 3 37 1621.37 1234.39 585.78 o
4792 2 3 -1 -37 1621.37 1234.39 585.78 o
4792 1 1 -3 37 1621.37 1234.39 585.78 o
4793 3 -1 -3 37 1620.86 2326.35 822.45 o
4793 2 -3 -1 -37 1620.86 2326.35 822.45 o
4793 1 1 3 37 1620.86 2326.35 822.45 o
4794 3 1 3 37 1620.77 1503.42 728.04 o
4794 2 3 1 -37 1620.77 1503.42 728.04 o
4794 1 -1 -3 37 1620.77 1503.42 728.04 o
4795 3 -2 -3 37 4.74 2239.31 837.69 o
4795 1 2 3 37 4.74 2239.31 837.69 o
4796 3 2 3 37 4.73 1400.56 838.34 <
4796 1 -2 -3 37 4.73 1400.56 838.34 <
4797 3 -3 -3 37 788.91 545.98 902.10 <
4797 2 -3 -3 -37 788.91 545.98 902.10 <
4797 1 3 3 37 788.91 545.98 902.10 <
4798 3 3 3 37 785.62 466.85 886.28 <
4798 2 3 3 -37 785.62 466.85 886.28 <
4798 1 -3 -3 37 785.62 466.85 886.28 <
4799 3 -4 -3 37 6.06 2310.52 908.92 o
4799 1 4 3 37 6.06 2310.52 908.92 o
4800 3 4 3 37 5.85 237.38 909.96 <
4800 1 -4 -3 37 5.85 237.38 909.96 <
4801 3 2 -5 37 1.46 862.49 917.74 <
4801 1 -2 5 37 1.46 862.49 917.74 <
4802 3 -2 5 37 1.47 878.32 680.30 <
4802 1 2 -5 37 1.47 878.32 680.30 <
4803 3 1 -5 37 258.74 1004.92 870.23 <
4803 2 -5 1 -37 258.74 1004.92 870.23 <
4803 1 -1 5 37 258.74 1004.92 870.23 <
4804 3 -1 5 37 261.20 379.81 743.78 <
4804 2 5 -1 -37 261.20 379.81 743.78 <
4804 1 1 -5 37 261.20 379.81 743.78 <
4805 3 -1 -5 37 261.03 435.20 902.03 <
4805 2 -5 -1 -37 261.03 435.20 902.03 <
4805 1 1 5 37 261.03 435.20 902.03 <
4806 3 1 5 37 258.91 1186.91 917.64 <
4806 2 5 1 -37 258.91 1186.91 917.64 <
4806 1 -1 -5 37 258.91 1186.91 917.64 <
4807 3 -2 -5 37 1.46 1400.56 885.84 <
4807 1 2 5 37 1.46 1400.56 885.84 <
4808 3 2 5 37 1.47 696.32 909.87 <
4808 1 -2 -5 37 1.47 696.32 909.87 <
4809 3 0 0 38 322.24 870.40 656.61 <
4809 2 0 0 -38 322.24 870.40 656.61 <
4809 1 0 0 38 322.24 870.40 656.61 <
4810 3 -1 0 38 86.43 585.54 664.59 <
4810 1 1 0 38 86.43 585.54 664.59 <
4811 3 1 0 38 86.43 997.01 672.33 <
4811 1 -1 0 38 86.43 997.01 672.33 <
4812 3 -2 0 38 385.98 569.72 648.81 <
4812 2 0 -2 -38 385.98 569.72 648.81 <
4812 1 2 0 38 385.98 569.72 648.81 <
4813 3 2 0 38 387.43 1258.13 608.91 o
4813 2 0 2 -38 387.43 1258.13 608.91 o
4813 1 -2 0 38 387.43 1258.13 608.91 o
4814 3 -3 0 38 639.04 680.50 696.31 <
4814 1 3 0 38 639.04 680.50 696.31 <
4815 3 3 0 38 639.04 1084.05 688.25 <
4815 1 -3 0 38 639.04 1084.05 688.25 <
4816 3 -4 0 38 125.52 569.72 767.47 <
4816 2 0 -4 -38 125.52 569.72 767.47 <
4816 1 4 0 38 125.52 569.72 767.47 <
4817 3 4 0 38 125.07 -79.13 672.58 <
4817 2 0 4 -38 125.07 -79.13 672.58 <
4817 1 -4 0 38 125.07 -79.13 672.58 <
4818 3 -5 0 38 278.94 1115.70 775.21 <
4818 1 5 0 38 278.94 1115.70 775.21 <
4819 3 5 0 38 278.94 1305.60 703.86 <
4819 1 -5 0 38 278.94 1305.60 703.86 <
4820 3 4 -2 38 184.82 609.28 1020.69 <
4820 2 -2 4 -38 184.82 609.28 1020.69 <
4820 1 -4 2 38 184.82 609.28 1020.69 <
4821 3 -4 2 38 184.82 1266.04 585.10 o
4821 2 2 -4 -38 184.82 1266.04 585.10 o
4821 1 4 -2 38 184.82 1266.04 585.10 o
4822 3 3 -2 38 218.47 158.26 933.71 <
4822 1 -3 2 38 218.47 158.26 933.71 <
4823 3 -3 2 38 217.91 688.41 553.77 <
4823 1 3 -2 38 217.91 688.41 553.77 <
4824 3 2 -2 38 195.02 1812.02 798.50 o
4824 2 -2 2 -38 195.02 1812.02 798.50 o
4824 1 -2 2 38 195.02 1812.02 798.50 o
4825 3 -2 2 38 195.71 838.75 656.60 <
4825 2 2 -2 -38 195.71 838.75 656.60 <
4825 1 2 -2 38 195.71 838.75 656.60 <
4826 3 1 -2 38 85.89 633.02 688.31 <
4826 1 -1 2 38 85.89 633.02 688.31 <
4827 3 -1 2 38 85.86 894.14 696.13 <
4827 1 1 -2 38 85.86 894.14 696.13 <
4828 3 0 -2 38 368.32 727.97 719.98 <
4828 2 -2 0 -38 368.32 727.97 719.98 <
4828 1 0 2 38 368.32 727.97 719.98 <
4829 3 0 2 38 368.92 1637.94 711.57 o
4829 2 2 0 -38 368.92 1637.94 711.57 o
4829 1 0 -2 38 368.92 1637.94 711.57 o
4830 3 -1 -2 38 85.89 593.46 727.90 <
4830 1 1 2 38 85.89 593.46 727.90 <
4831 3 1 2 38 85.86 -276.95 743.78 <
4831 1 -1 -2 38 85.86 -276.95 743.78 <
4832 3 -2 -2 38 196.18 316.51 743.79 <
4832 2 -2 -2 -38 196.18 316.51 743.79 <
4832 1 2 2 38 196.18 316.51 743.79 <
4833 3 2 2 38 194.54 704.23 783.27 <
4833 2 2 2 -38 194.54 704.23 783.27 <
4833 1 -2 -2 38 194.54 704.23 783.27 <
4834 3 -3 -2 38 218.47 648.85 846.60 <
4834 1 3 2 38 218.47 648.85 846.60 <
4835 3 3 2 38 217.91 830.84 830.72 <
4835 1 -3 -2 38 217.91 830.84 830.72 <
4836 3 -4 -2 38 185.46 1131.52 980.97 <
4836 2 -2 -4 -38 185.46 1131.52 980.97 <
4836 1 4 2 38 185.46 1131.52 980.97 <
4837 3 4 2 38 184.18 1076.13 988.91 <
4837 2 2 4 -38 184.18 1076.13 988.91 <
4837 1 -4 -2 38 184.18 1076.13 988.91 <
4838 3 3 -4 38 34.56 -688.41 981.09 <
4838 1 -3 4 38 34.56 -688.41 981.09 <
4839 3 -3 4 38 34.17 997.01 609.00 <
4839 1 3 -4 38 34.17 997.01 609.00 <
4840 3 2 -4 38 161.93 -498.50 989.04 <
4840 2 -4 2 -38 161.93 -498.50 989.04 <
4840 1 -2 4 38 161.93 -498.50 989.04 <
4841 3 -2 4 38 163.22 1226.48 624.71 <
4841 2 4 -2 -38 163.22 1226.48 624.71 <
4841 1 2 -4 38 163.22 1226.48 624.71 <
4842 3 1 -4 38 7.97 395.64 846.63 <
4842 1 -1 4 38 7.97 395.64 846.63 <
4843 3 -1 4 38 7.89 593.46 688.32 <
4843 1 1 -4 38 7.89 593.46 688.32 <
4844 3 0 -4 38 99.37 917.88 878.16 <
4844 2 -4 0 -38 99.37 917.88 878.16 <
4844 1 0 4 38 99.37 917.88 878.16 <
4845 3 0 4 38 99.18 1155.26 798.91 <
4845 2 4 0 -38 99.18 1155.26 798.91 <
4845 1 0 -4 38 99.18 1155.26 798.91 <
4846 3 -1 -4 38 7.97 1471.77 846.21 <
4846 1 1 4 38 7.97 1471.77 846.21 <
4847 3 1 4 38 7.89 680.50 862.40 <
4847 1 -1 -4 38 7.89 680.50 862.40 <
4848 3 -2 -4 38 163.48 -71.21 886.23 <
4848 2 -4 -2 -38 163.48 -71.21 886.23 <
4848 1 2 4 38 163.48 -71.21 886.23 <
4849 3 2 4 38 161.66 -561.81 878.24 <
4849 2 4 2 -38 161.66 -561.81 878.24 <
4849 1 -2 -4 38 161.66 -561.81 878.24 <
4850 3 -3 -4 38 34.56 -656.76 894.05 <
4850 1 3 4 38 34.56 -656.76 894.05 <
4851 3 3 4 38 34.17 775.45 909.85 <
4851 1 -3 -4 38 34.17 775.45 909.85 <
4852 3 4 -1 39 206.17 435.20 925.77 <
4852 1 -4 1 39 206.17 435.20 925.77 <
4853 3 -4 1 39 205.70 743.80 704.12 <
4853 1 4 -1 39 205.70 743.80 704.12 <
4854 3 3 -1 39 374.14 664.67 625.04 <
4854 2 -1 3 -39 374.14 664.67 625.04 <
4854 1 -3 1 39 374.14 664.67 625.04 <
4855 3 -3 1 39 377.61 561.81 743.77 <
4855 2 1 -3 -39 377.61 561.81 743.77 <
4855 1 3 -1 39 377.61 561.81 743.77 <
4856 3 2 -1 39 165.09 1527.16 703.68 o
4856 1 -2 1 39 165.09 1527.16 703.68 o
4857 3 -2 1 39 164.62 617.20 680.41 <
4857 1 2 -1 39 164.62 617.20 680.41 <
4858 3 1 -1 39 1412.57 1139.44 728.10 <
4858 2 -1 1 -39 1412.57 1139.44 728.10 <
4858 1 -1 1 39 1412.57 1139.44 728.10 <
4859 3 -1 1 39 1414.62 1859.50 703.95 o
4859 2 1 -1 -39 1414.62 1859.50 703.95 o
4859 1 1 -1 39 1414.62 1859.50 703.95 o
4860 3 -1 -1 39 1416.05 1598.38 688.30 o
4860 2 -1 -1 -39 1416.05 1598.38 688.30 o
4860 1 1 1 39 1416.05 1598.38 688.30 o
4861 3 1 1 39 1411.14 2073.14 672.10 o
4861 2 1 1 -39 1411.14 2073.14 672.10 o
4861 1 -1 -1 39 1411.14 2073.14 672.10 o
4862 3 -2 -1 39 165.09 593.46 759.56 <
4862 1 2 1 39 165.09 593.46 759.56 <
4863 3 2 1 39 164.62 775.45 680.36 <
4863 1 -2 -1 39 164.62 775.45 680.36 <
4864 3 -3 -1 39 378.39 411.46 799.18 <
4864 2 -1 -3 -39 378.39 411.46 799.18 <
4864 1 3 1 39 378.39 411.46 799.18 <
4865 3 3 1 39 373.36 941.62 735.73 <
4865 2 1 3 -39 373.36 941.62 735.73 <
4865 1 -3 -1 39 373.36 941.62 735.73 <
4866 3 -4 -1 39 206.18 712.15 854.49 <
4866 1 4 1 39 206.18 712.15 854.49 <
4867 3 4 1 39 205.70 142.43 743.80 <
4867 1 -4 -1 39 205.70 142.43 743.80 <
4868 3 3 -3 39 125.41 822.93 822.79 <
4868 2 -3 3 -39 125.41 822.93 822.79 <
4868 1 -3 3 39 125.41 822.93 822.79 <
4869 3 -3 3 39 126.81 1115.70 577.27 <
4869 2 3 -3 -39 126.81 1115.70 577.27 <
4869 1 3 -3 39 126.81 1115.70 577.27 <
4870 3 2 -3 39 43.16 -31.65 1020.75 <
4870 1 -2 3 39 43.16 -31.65 1020.75 <
4871 3 -2 3 39 42.68 1582.55 600.64 o
4871 1 2 -3 39 42.68 1582.55 600.64 o
4872 3 1 -3 39 380.36 1123.61 878.12 <
4872 2 -3 1 -39 380.36 1123.61 878.12 <
4872 1 -1 3 39 380.36 1123.61 878.12 <
4873 3 -1 3 39 380.52 704.23 648.77 <
4873 2 3 -1 -39 380.52 704.23 648.77 <
4873 1 1 -3 39 380.52 704.23 648.77 <
4874 3 -1 -3 39 382.27 1012.83 973.13 <
4874 2 -3 -1 -39 382.27 1012.83 973.13 <
4874 1 1 3 39 382.27 1012.83 973.13 <
4875 3 1 3 39 378.61 989.09 719.88 <
4875 2 3 1 -39 378.61 989.09 719.88 <
4875 1 -1 -3 39 378.61 989.09 719.88 <
4876 3 -2 -3 39 43.16 1962.36 1004.25 <
4876 1 2 3 39 43.16 1962.36 1004.25 <
4877 3 2 3 39 42.68 1709.16 901.48 <
4877 1 -2 -3 39 42.68 1709.16 901.48 <
4878 3 -3 -3 39 127.80 791.28 933.60 <
4878 2 -3 -3 -39 127.80 791.28 933.60 <
4878 1 3 3 39 127.80 791.28 933.60 <
4879 3 3 3 39 124.42 1519.25 957.03 <
4879 2 3 3 -39 124.42 1519.25 957.03 <
4879 1 -3 -3 39 124.42 1519.25 957.03 <
4880 3 0 0 40 3839.98 3608.22 720.38 o
4880 2 0 0 -40 3839.98 3608.22 720.38 o
4880 1 0 0 40 3839.98 3608.22 720.38 o
4881 3 -1 0 40 16.99 379.81 704.20 <
4881 1 1 0 40 16.99 379.81 704.20 <
4882 3 1 0 40 16.99 237.38 672.57 <
4882 1 -1 0 40 16.99 237.38 672.57 <
4883 3 -2 0 40 2184.55 1748.72 728.28 o
4883 2 0 -2 -40 2184.55 1748.72 728.28 o
4883 1 2 0 40 2184.55 1748.72 728.28 o
4884 3 2 0 40 2184.27 2381.74 672.40 o
4884 2 0 2 -40 2184.27 2381.74 672.40 o
4884 1 -2 0 40 2184.27 2381.74 672.40 o
4885 3 -3 0 40 79.76 577.63 775.38 <
4885 1 3 0 40 79.76 577.63 775.38 <
4886 3 3 0 40 79.76 569.72 719.99 <
4886 1 -3 0 40 79.76 569.72 719.99 <
4887 3 -4 0 40 423.56 1360.99 806.78 <
4887 2 0 -4 -40 423.56 1360.99 806.78 <
4887 1 4 0 40 423.56 1360.99 806.78 <
4888 3 4 0 40 422.30 1875.32 703.47 o
4888 2 0 4 -40 422.30 1875.32 703.47 o
4888 1 -4 0 40 422.30 1875.32 703.47 o
4889 3 3 -2 40 8.32 545.98 1036.52 <
4889 1 -3 2 40 8.32 545.98 1036.52 <
4890 3 -3 2 40 8.22 1107.79 593.09 <
4890 1 3 -2 40 8.22 1107.79 593.09 <
4891 3 2 -2 40 1281.87 1954.45 877.96 o
4891 2 -2 2 -40 1281.87 1954.45 877.96 o
4891 1 -2 2 40 1281.87 1954.45 877.96 o
4892 3 -2 2 40 1283.43 1368.91 759.58 <
4892 2 2 -2 -40 1283.43 1368.91 759.58 <
4892 1 2 -2 40 1283.43 1368.91 759.58 <
4893 3 1 -2 40 39.45 1392.64 965.00 <
4893 1 -1 2 40 39.45 1392.64 965.00 <
4894 3 -1 2 40 39.54 743.80 719.93 <
4894 1 1 -2 40 39.54 743.80 719.93 <
4895 3 0 -2 40 2215.10 2263.05 751.67 o
4895 2 -2 0 -40 2215.10 2263.05 751.67 o
4895 1 0 2 40 2215.10 2263.05 751.67 o
4896 3 0 2 40 2215.00 2041.49 807.22 o
4896 2 2 0 -40 2215.00 2041.49 807.22 o
4896 1 0 -2 40 2215.00 2041.49 807.22 o
4897 3 -1 -2 40 39.45 1084.05 767.27 <
4897 1 1 2 40 39.45 1084.05 767.27 <
4898 3 1 2 40 39.54 284.86 767.52 <
4898 1 -1 -2 40 39.54 284.86 767.52 <
4899 3 -2 -2 40 1284.51 1384.73 886.19 <
4899 2 -2 -2 -40 1284.51 1384.73 886.19 <
4899 1 2 2 40 1284.51 1384.73 886.19 <
4900 3 2 2 40 1280.78 1194.83 854.61 <
4900 2 2 2 -40 1280.78 1194.83 854.61 <
4900 1 -2 -2 40 1280.78 1194.83 854.61 <
4901 3 -3 -2 40 8.32 174.08 886.22 <
4901 1 3 2 40 8.32 174.08 886.22 <
4902 3 3 2 40 8.22 727.97 925.69 <
4902 1 -3 -2 40 8.22 727.97 925.69 <
4903 3 1 -4 40 22.59 1463.86 917.47 <
4903 1 -1 4 40 22.59 1463.86 917.47 <
4904 3 -1 4 40 22.45 332.34 696.29 <
4904 1 1 -4 40 22.45 332.34 696.29 <
4905 3 0 -4 40 409.33 2001.93 933.04 o
4905 2 -4 0 -40 409.33 2001.93 933.04 o
4905 1 0 4 40 409.33 2001.93 933.04 o
4906 3 0 4 40 408.81 1179.00 901.84 <
4906 2 4 0 -40 408.81 1179.00 901.84 <
4906 1 0 -4 40 408.81 1179.00 901.84 <
4907 3 -1 -4 40 22.59 617.20 973.20 <
4907 1 1 4 40 22.59 617.20 973.20 <
4908 3 1 4 40 22.45 221.56 973.26 <
4908 1 -1 -4 40 22.45 221.56 973.26 <
4909 3 3 -1 41 477.22 1266.04 632.69 <
4909 2 -1 3 -41 477.22 1266.04 632.69 <
4909 1 -3 1 41 477.22 1266.04 632.69 <
4910 3 -3 1 41 479.06 276.95 712.17 <
4910 2 1 -3 -41 479.06 276.95 712.17 <
4910 1 3 -1 41 479.06 276.95 712.17 <
4911 3 2 -1 41 117.19 213.64 696.32 <
4911 1 -2 1 41 117.19 213.64 696.32 <
4912 3 -2 1 41 117.04 1020.75 656.49 <
4912 1 2 -1 41 117.04 1020.75 656.49 <
4913 3 1 -1 41 805.41 1535.07 688.04 o
4913 2 -1 1 -41 805.41 1535.07 688.04 o
4913 1 -1 1 41 805.41 1535.07 688.04 o
4914 3 -1 1 41 806.40 1590.46 727.59 o
4914 2 1 -1 -41 806.40 1590.46 727.59 o
4914 1 1 -1 41 806.40 1590.46 727.59 o
4915 3 -1 -1 41 807.10 1598.38 751.34 o
4915 2 -1 -1 -41 807.10 1598.38 751.34 o
4915 1 1 1 41 807.10 1598.38 751.34 o
4916 3 1 1 41 804.71 2104.79 719.26 o
4916 2 1 1 -41 804.71 2104.79 719.26 o
4916 1 -1 -1 41 804.71 2104.79 719.26 o
4917 3 -2 -1 41 117.19 704.23 759.52 <
4917 1 2 1 41 117.19 704.23 759.52 <
4918 3 2 1 41 117.04 1044.48 751.47 <
4918 1 -2 -1 41 117.04 1044.48 751.47 <
4919 3 -3 -1 41 479.00 1487.60 830.47 <
4919 2 -1 -3 -41 479.00 1487.60 830.47 <
4919 1 3 1 41 479.00 1487.60 830.47 <
4920 3 3 1 41 477.28 1360.99 775.13 <
4920 2 1 3 -41 477.28 1360.99 775.13 <
4920 1 -3 -1 41 477.28 1360.99 775.13 <
4921 3 2 -3 41 13.42 -55.39 989.09 <
4921 1 -2 3 41 13.42 -55.39 989.09 <
4922 3 -2 3 41 13.33 727.97 680.36 <
4922 1 2 -3 41 13.33 727.97 680.36 <
4923 3 1 -3 41 476.85 1883.24 893.55 o
4923 2 -3 1 -41 476.85 1883.24 893.55 o
4923 1 -1 3 41 476.85 1883.24 893.55 o
4924 3 -1 3 41 475.96 1883.24 679.72 o
4924 2 3 -1 -41 475.96 1883.24 679.72 o
4924 1 1 -3 41 475.96 1883.24 679.72 o
4925 3 -1 -3 41 476.69 1400.56 917.59 <
4925 2 -3 -1 -41 476.69 1400.56 917.59 <
4925 1 1 3 41 476.69 1400.56 917.59 <
4926 3 1 3 41 476.12 1115.70 806.91 <
4926 2 3 1 -41 476.12 1115.70 806.91 <
4926 1 -1 -3 41 476.12 1115.70 806.91 <
4927 3 -2 -3 41 13.42 1637.94 949.03 <
4927 1 2 3 41 13.42 1637.94 949.03 <
4928 3 2 3 41 13.33 633.02 965.28 <
4928 1 -2 -3 41 13.33 633.02 965.28 <
4929 3 0 0 42 57.70 1091.96 696.03 <
4929 2 0 0 -42 57.70 1091.96 696.03 <
4929 1 0 0 42 57.70 1091.96 696.03 <
4930 3 -1 0 42 0.37 443.11 735.84 <
4930 1 1 0 42 0.37 443.11 735.84 <
4931 3 1 0 42 0.37 854.58 688.22 <
4931 1 -1 0 42 0.37 854.58 688.22 <
4932 3 -2 0 42 15.19 981.18 743.57 <
4932 2 0 -2 -42 15.19 981.18 743.57 <
4932 1 2 0 42 15.19 981.18 743.57 <
4933 3 2 0 42 14.33 1234.39 751.35 <
4933 2 0 2 -42 14.33 1234.39 751.35 <
4933 1 -2 0 42 14.33 1234.39 751.35 <
4934 3 1 -2 42 23.25 545.98 878.26 <
4934 1 -1 2 42 23.25 545.98 878.26 <
4935 3 -1 2 42 23.26 569.72 775.38 <
4935 1 1 -2 42 23.26 569.72 775.38 <
4936 3 0 -2 42 13.58 1519.25 1075.76 <
4936 2 -2 0 -42 13.58 1519.25 1075.76 <
4936 1 0 2 42 13.58 1519.25 1075.76 <
4937 3 0 2 42 13.23 1432.21 782.90 <
4937 2 2 0 -42 13.23 1432.21 782.90 <
4937 1 0 -2 42 13.23 1432.21 782.90 <
4938 3 -1 -2 42 23.25 609.28 814.93 <
4938 1 1 2 42 23.25 609.28 814.93 <
4939 3 1 2 42 23.26 1598.38 798.62 <
4939 1 -1 -2 42 23.26 1598.38 798.62 <
4940 3 1 -1 43 22.78 941.62 743.59 <
4940 2 -1 1 -43 22.78 941.62 743.59 <
4940 1 -1 1 43 22.78 941.62 743.59 <
4941 3 -1 1 43 23.24 1756.63 703.46 o
4941 2 1 -1 -43 23.24 1756.63 703.46 o
4941 1 1 -1 43 23.24 1756.63 703.46 o
4942 3 -1 -1 43 23.57 617.20 751.62 <
4942 2 -1 -1 -43 23.57 617.20 751.62 <
4942 1 1 1 43 23.57 617.20 751.62 <
4943 3 1 1 43 22.45 1147.35 790.98 <
4943 2 1 1 -43 22.45 1147.35 790.98 <
4943 1 -1 -1 43 22.45 1147.35 790.98 <
